2023-11-29T12:48:00,972  INFO RunEvExample:56 Starting simulation run with the example config file from GitHub repository
################### MATSIM LIB 
2023-11-29T12:48:01,001  INFO Config:550 setting context to [file:/C:/Users/Tobias%20Tietz/IdeaProjects/matsim-libs-HoLa/]
2023-11-29T12:48:01,105  INFO Version:21 HV000001: Hibernate Validator 8.0.1.Final
2023-11-29T12:48:01,324  INFO MatsimXmlParser:170 starting to parse xml from url https://raw.githubusercontent.com/matsim-org/matsim/master/contribs/ev/test/input/org/matsim/contrib/ev/example/RunEvExample/config.xml ...
2023-11-29T12:48:01,974  INFO ConfigReader:105 using config_v2-reader
2023-11-29T12:48:01,975  INFO MatsimXmlParser:296 Trying to load http://www.matsim.org/files/dtd/config_v2.dtd. In some cases (e.g. network interface up but no connection), this may take a bit.
2023-11-29T12:48:02,061  WARN ConfigAliases:76 Config name 'controler' is deprecated, please use 'controller' instead. Config path: controler <  /
2023-11-29T12:48:02,064  WARN ConfigAliases:76 Config name 'planCalcScore' is deprecated, please use 'scoring' instead. Config path: planCalcScore <  /
2023-11-29T12:48:02,067  WARN ConfigAliases:76 Config name 'BrainExpBeta' is deprecated, please use 'brainExpBeta' instead. Config path: BrainExpBeta < scoring /
2023-11-29T12:48:02,069  WARN ScoringConfigGroup:281 traveling is deprecated config syntax; please use the more modern hierarchical format; your output_config.xml will be in the correct version; the old version will fail eventually, since we want to reduce the workload on this backwards compatibility (look into PlanCalcScoreConfigGroup or PlanCalcRouteConfigGroup if you want to know what we mean).
2023-11-29T12:48:02,071  WARN ConfigAliases:76 Config name 'strategy' is deprecated, please use 'replanning' instead. Config path: strategy <  /
2023-11-29T12:48:02,075  INFO Config:550 setting context to [https://raw.githubusercontent.com/matsim-org/matsim/master/contribs/ev/test/input/org/matsim/contrib/ev/example/RunEvExample/config.xml]
2023-11-29T12:48:02,077  INFO CommandLine:511 Received 0 positional command line arguments:
2023-11-29T12:48:02,077  INFO CommandLine:512    
2023-11-29T12:48:02,077  INFO CommandLine:534 Received 0 command line options with 0 prefixes:
2023-11-29T12:48:02,119  INFO ScenarioLoaderImpl:135 loading network from https://raw.githubusercontent.com/matsim-org/matsim/master/contribs/ev/test/input/org/matsim/contrib/ev/example/RunEvExample/brandenburg-motorways.xml.gz
2023-11-29T12:48:02,121  INFO MatsimXmlParser:170 starting to parse xml from url https://raw.githubusercontent.com/matsim-org/matsim/master/contribs/ev/test/input/org/matsim/contrib/ev/example/RunEvExample/brandenburg-motorways.xml.gz ...
2023-11-29T12:48:02,770  INFO MatsimNetworkReader:122 using network_v2-reader.
2023-11-29T12:48:02,770  INFO MatsimXmlParser:296 Trying to load http://www.matsim.org/files/dtd/network_v2.dtd. In some cases (e.g. network interface up but no connection), this may take a bit.
2023-11-29T12:48:02,812  INFO NetworkImpl:165  node # 1
2023-11-29T12:48:02,812  INFO NetworkImpl:165  node # 4
2023-11-29T12:48:02,813  INFO NetworkImpl:165  node # 16
2023-11-29T12:48:02,816  INFO NetworkImpl:165  node # 64
2023-11-29T12:48:02,826  INFO NetworkImpl:165  node # 256
2023-11-29T12:48:02,846  INFO NetworkImpl:165  node # 1024
2023-11-29T12:48:02,874  INFO NetworkImpl:165  node # 4096
2023-11-29T12:48:02,936  INFO NetworkImpl:165  node # 16384
2023-11-29T12:48:02,978  INFO NetworkImpl:161  link # 1
2023-11-29T12:48:02,979  INFO NetworkImpl:161  link # 4
2023-11-29T12:48:02,981  INFO NetworkImpl:161  link # 16
2023-11-29T12:48:02,986  INFO NetworkImpl:161  link # 64
2023-11-29T12:48:02,990  WARN LinkImpl:119 permlanes=0.5 of link id 10309503_0 may cause problems
2023-11-29T12:48:02,990  WARN LinkImpl:121  Future occurences of this logging statement are suppressed.
2023-11-29T12:48:03,004  INFO NetworkImpl:161  link # 256
2023-11-29T12:48:03,033  INFO NetworkImpl:161  link # 1024
2023-11-29T12:48:03,090  INFO NetworkImpl:161  link # 4096
2023-11-29T12:48:03,261  INFO NetworkImpl:161  link # 16384
2023-11-29T12:48:03,509  INFO ScenarioLoaderImpl:172 no facilities file set in config, therefore not loading any facilities.  This is not a problem except if you are using facilities
2023-11-29T12:48:03,509  INFO ScenarioLoaderImpl:188 no facility-attributes file set in config, not loading any facility attributes
2023-11-29T12:48:03,509  INFO ScenarioLoaderImpl:196 loading population from https://raw.githubusercontent.com/matsim-org/matsim/master/contribs/ev/test/input/org/matsim/contrib/ev/example/RunEvExample/ev_population.xml
2023-11-29T12:48:03,515  INFO MatsimXmlParser:170 starting to parse xml from url https://raw.githubusercontent.com/matsim-org/matsim/master/contribs/ev/test/input/org/matsim/contrib/ev/example/RunEvExample/ev_population.xml ...
2023-11-29T12:48:03,732  INFO PopulationReader:135 using population_v6-reader.
2023-11-29T12:48:03,732  INFO MatsimXmlParser:296 Trying to load http://www.matsim.org/files/dtd/population_v6.dtd. In some cases (e.g. network interface up but no connection), this may take a bit.
2023-11-29T12:48:03,773  INFO ParallelPopulationReaderMatsimV6:168 Start parallel population reading...
2023-11-29T12:48:03,779  INFO PopulationImpl:107  person # 1
2023-11-29T12:48:03,784  INFO PopulationImpl:107  person # 4
2023-11-29T12:48:03,795  INFO ParallelPopulationReaderMatsimV6:238 Finished parallel population reading...
2023-11-29T12:48:03,795  INFO PopulationUtils:1108  person # 15
2023-11-29T12:48:03,795  INFO ScenarioLoaderImpl:244 no person-attributes file set in config, not loading any person attributes
2023-11-29T12:48:03,795  INFO ScenarioLoaderImpl:258 no households file set in config, not loading households
2023-11-29T12:48:03,795  INFO ScenarioLoaderImpl:292 no transit schedule file set in config, not loading any transit schedule
2023-11-29T12:48:03,795  INFO ScenarioLoaderImpl:333 no transit vehicles file set in config, not loading any transit vehicles
2023-11-29T12:48:03,796  INFO ScenarioLoaderImpl:339 loading vehicles from evehicles.xml
2023-11-29T12:48:03,798  INFO MatsimXmlParser:170 starting to parse xml from url https://raw.githubusercontent.com/matsim-org/matsim/master/contribs/ev/test/input/org/matsim/contrib/ev/example/RunEvExample/evehicles.xml ...
2023-11-29T12:48:04,020  INFO MatsimXmlParser:296 Trying to load http://www.matsim.org/files/dtd/vehicleDefinitions_v2.0.xsd. In some cases (e.g. network interface up but no connection), this may take a bit.
2023-11-29T12:48:04,065  INFO MatsimXmlParser:296 Trying to load http://www.matsim.org/files/dtd/matsimCommon.xsd. In some cases (e.g. network interface up but no connection), this may take a bit.
2023-11-29T12:48:04,117  INFO MatsimXmlParser:296 Trying to load http://www.matsim.org/files/dtd/vehicleDefinitionsEnumTypes.xsd. In some cases (e.g. network interface up but no connection), this may take a bit.
2023-11-29T12:48:04,164  INFO MatsimVehicleReader$VehicleReader:77 Found following schemaLocation in vehicle definition file: http://www.matsim.org/files/dtd http://www.matsim.org/files/dtd/vehicleDefinitions_v2.0.xsd
2023-11-29T12:48:04,164  INFO VehicleReaderV2:24 Using org.matsim.vehicles.VehicleReaderV2
2023-11-29T12:48:04,182  INFO Counter:70 [VehiclesImpl] added vehicle # 1
2023-11-29T12:48:04,182  INFO Counter:70 [VehiclesImpl] added vehicle # 2
2023-11-29T12:48:04,183  INFO Counter:70 [VehiclesImpl] added vehicle # 4
2023-11-29T12:48:04,184  INFO Counter:70 [VehiclesImpl] added vehicle # 8
2023-11-29T12:48:04,198  INFO ScoringConfigGroup$ScoringParameterSet:1555 NO OPENING OR CLOSING TIMES DEFINED!

There is no activity type that has an opening *and* closing time (or opening time and late penalty) defined.
This usually means that the activity chains can be shifted by an arbitrary
number of hours without having an effect on the score of the plans, and thus
resulting in wrong results / traffic patterns.
If you are using MATSim without time adaptation, you can ignore this warning.


2023-11-29T12:48:04,199  INFO VspConfigConsistencyCheckerImpl:68 NOT running vsp config consistency check because vsp defaults checking level is set to IGNORE
2023-11-29T12:48:05,129  INFO SimStepParallelEventsManagerImpl:80 number of threads=1
2023-11-29T12:48:05,133  INFO MatsimXmlParser:170 starting to parse xml from url https://raw.githubusercontent.com/matsim-org/matsim/master/contribs/ev/test/input/org/matsim/contrib/ev/example/RunEvExample/chargers.xml ...
2023-11-29T12:48:05,311  INFO MatsimXmlParser:296 Trying to load http://matsim.org/files/dtd/chargers_v1.dtd. In some cases (e.g. network interface up but no connection), this may take a bit.
2023-11-29T12:48:05,387  INFO EventsManagerImpl:138 adding Event-Handler: org.matsim.core.trafficmonitoring.TravelTimeCalculator
2023-11-29T12:48:05,387  INFO EventsManagerImpl:144   org.matsim.api.core.v01.events.handler.LinkEnterEventHandler
2023-11-29T12:48:05,387  INFO EventsManagerImpl:205     > org.matsim.api.core.v01.events.LinkEnterEvent
2023-11-29T12:48:05,388  INFO EventsManagerImpl:144   org.matsim.api.core.v01.events.handler.LinkLeaveEventHandler
2023-11-29T12:48:05,388  INFO EventsManagerImpl:205     > org.matsim.api.core.v01.events.LinkLeaveEvent
2023-11-29T12:48:05,388  INFO EventsManagerImpl:144   org.matsim.api.core.v01.events.handler.VehicleEntersTrafficEventHandler
2023-11-29T12:48:05,388  INFO EventsManagerImpl:205     > org.matsim.api.core.v01.events.VehicleEntersTrafficEvent
2023-11-29T12:48:05,388  INFO EventsManagerImpl:144   org.matsim.api.core.v01.events.handler.VehicleLeavesTrafficEventHandler
2023-11-29T12:48:05,388  INFO EventsManagerImpl:205     > org.matsim.api.core.v01.events.VehicleLeavesTrafficEvent
2023-11-29T12:48:05,388  INFO EventsManagerImpl:144   org.matsim.core.api.experimental.events.handler.VehicleArrivesAtFacilityEventHandler
2023-11-29T12:48:05,388  INFO EventsManagerImpl:205     > org.matsim.core.api.experimental.events.VehicleArrivesAtFacilityEvent
2023-11-29T12:48:05,388  INFO EventsManagerImpl:144   org.matsim.api.core.v01.events.handler.VehicleAbortsEventHandler
2023-11-29T12:48:05,389  INFO EventsManagerImpl:205     > org.matsim.api.core.v01.events.VehicleAbortsEvent
2023-11-29T12:48:05,389  INFO EventsManagerImpl:154 
2023-11-29T12:48:05,389  INFO EventsManagerImpl:138 adding Event-Handler: org.matsim.core.trafficmonitoring.TravelTimeCalculator
2023-11-29T12:48:05,389  INFO EventsManagerImpl:144   org.matsim.api.core.v01.events.handler.LinkEnterEventHandler
2023-11-29T12:48:05,389  INFO EventsManagerImpl:205     > org.matsim.api.core.v01.events.LinkEnterEvent
2023-11-29T12:48:05,389  INFO EventsManagerImpl:144   org.matsim.api.core.v01.events.handler.LinkLeaveEventHandler
2023-11-29T12:48:05,389  INFO EventsManagerImpl:205     > org.matsim.api.core.v01.events.LinkLeaveEvent
2023-11-29T12:48:05,390  INFO EventsManagerImpl:144   org.matsim.api.core.v01.events.handler.VehicleEntersTrafficEventHandler
2023-11-29T12:48:05,390  INFO EventsManagerImpl:205     > org.matsim.api.core.v01.events.VehicleEntersTrafficEvent
2023-11-29T12:48:05,390  INFO EventsManagerImpl:144   org.matsim.api.core.v01.events.handler.VehicleLeavesTrafficEventHandler
2023-11-29T12:48:05,390  INFO EventsManagerImpl:205     > org.matsim.api.core.v01.events.VehicleLeavesTrafficEvent
2023-11-29T12:48:05,390  INFO EventsManagerImpl:144   org.matsim.core.api.experimental.events.handler.VehicleArrivesAtFacilityEventHandler
2023-11-29T12:48:05,390  INFO EventsManagerImpl:205     > org.matsim.core.api.experimental.events.VehicleArrivesAtFacilityEvent
2023-11-29T12:48:05,390  INFO EventsManagerImpl:144   org.matsim.api.core.v01.events.handler.VehicleAbortsEventHandler
2023-11-29T12:48:05,390  INFO EventsManagerImpl:205     > org.matsim.api.core.v01.events.VehicleAbortsEvent
2023-11-29T12:48:05,390  INFO EventsManagerImpl:154 
2023-11-29T12:48:05,392  INFO OutputDirectoryHierarchy:278 ###########################################################
2023-11-29T12:48:05,392  INFO OutputDirectoryHierarchy:279 ### THE CONTROLER WILL DELETE THE EXISTING OUTPUT DIRECTORY:
2023-11-29T12:48:05,392  INFO OutputDirectoryHierarchy:280 ### ./output/evExample
2023-11-29T12:48:05,393  WARN OutputDirectoryHierarchy:281 ### full path: C:\Users\Tobias Tietz\IdeaProjects\matsim-libs-HoLa\.\output\evExample
2023-11-29T12:48:05,393  INFO OutputDirectoryHierarchy:282 ###########################################################
2023-11-29T12:48:05,411  INFO StrategyManager:77 global innovation switch off after iteration: 0
2023-11-29T12:48:05,412  INFO GenericStrategyManagerImpl:362 setting PlanSelectorForRemoval to class org.matsim.core.replanning.selectors.WorstPlanForRemovalSelector
2023-11-29T12:48:05,413  WARN ConflictModule:47 The replanning.planSelectorForRemoval is not set to WorstPlanForRemovalSelectorWithConflicts. This will likely cause problems with the conflict logic if you are not sure what you are doing.
2023-11-29T12:48:05,415  INFO EventsManagerImpl:138 adding Event-Handler: org.matsim.core.scoring.ScoringFunctionsForPopulation
2023-11-29T12:48:05,416  INFO EventsManagerImpl:144   org.matsim.core.events.handler.BasicEventHandler
2023-11-29T12:48:05,416  INFO EventsManagerImpl:205     > org.matsim.api.core.v01.events.Event
2023-11-29T12:48:05,416  INFO EventsManagerImpl:154 
2023-11-29T12:48:05,416  INFO EventsManagerImpl:138 adding Event-Handler: org.matsim.core.scoring.ScoringFunctionsForPopulation
2023-11-29T12:48:05,416  INFO EventsManagerImpl:144   org.matsim.core.events.handler.BasicEventHandler
2023-11-29T12:48:05,416  INFO EventsManagerImpl:205     > org.matsim.api.core.v01.events.Event
2023-11-29T12:48:05,416  INFO EventsManagerImpl:154 
2023-11-29T12:48:05,419  INFO CalcLinkStats:151  resetting `count' to zero.  This info is here since we want to check when this is happening during normal simulation runs.  kai, jan'11
2023-11-29T12:48:05,461  INFO EventsManagerImpl:138 adding Event-Handler: org.matsim.analysis.VolumesAnalyzer
2023-11-29T12:48:05,461  INFO EventsManagerImpl:144   org.matsim.api.core.v01.events.handler.LinkLeaveEventHandler
2023-11-29T12:48:05,461  INFO EventsManagerImpl:205     > org.matsim.api.core.v01.events.LinkLeaveEvent
2023-11-29T12:48:05,461  INFO EventsManagerImpl:144   org.matsim.api.core.v01.events.handler.VehicleEntersTrafficEventHandler
2023-11-29T12:48:05,461  INFO EventsManagerImpl:205     > org.matsim.api.core.v01.events.VehicleEntersTrafficEvent
2023-11-29T12:48:05,461  INFO EventsManagerImpl:154 
2023-11-29T12:48:05,461  INFO EventsManagerImpl:138 adding Event-Handler: org.matsim.analysis.VolumesAnalyzer
2023-11-29T12:48:05,461  INFO EventsManagerImpl:144   org.matsim.api.core.v01.events.handler.LinkLeaveEventHandler
2023-11-29T12:48:05,462  INFO EventsManagerImpl:205     > org.matsim.api.core.v01.events.LinkLeaveEvent
2023-11-29T12:48:05,462  INFO EventsManagerImpl:144   org.matsim.api.core.v01.events.handler.VehicleEntersTrafficEventHandler
2023-11-29T12:48:05,462  INFO EventsManagerImpl:205     > org.matsim.api.core.v01.events.VehicleEntersTrafficEvent
2023-11-29T12:48:05,462  INFO EventsManagerImpl:154 
2023-11-29T12:48:05,463  INFO EventsManagerImpl:138 adding Event-Handler: org.matsim.analysis.LegHistogram
2023-11-29T12:48:05,463  INFO EventsManagerImpl:144   org.matsim.api.core.v01.events.handler.PersonDepartureEventHandler
2023-11-29T12:48:05,463  INFO EventsManagerImpl:205     > org.matsim.api.core.v01.events.PersonDepartureEvent
2023-11-29T12:48:05,463  INFO EventsManagerImpl:144   org.matsim.api.core.v01.events.handler.PersonArrivalEventHandler
2023-11-29T12:48:05,463  INFO EventsManagerImpl:205     > org.matsim.api.core.v01.events.PersonArrivalEvent
2023-11-29T12:48:05,463  INFO EventsManagerImpl:144   org.matsim.api.core.v01.events.handler.PersonStuckEventHandler
2023-11-29T12:48:05,463  INFO EventsManagerImpl:205     > org.matsim.api.core.v01.events.PersonStuckEvent
2023-11-29T12:48:05,463  INFO EventsManagerImpl:154 
2023-11-29T12:48:05,463  INFO EventsManagerImpl:138 adding Event-Handler: org.matsim.analysis.LegHistogram
2023-11-29T12:48:05,464  INFO EventsManagerImpl:144   org.matsim.api.core.v01.events.handler.PersonDepartureEventHandler
2023-11-29T12:48:05,464  INFO EventsManagerImpl:205     > org.matsim.api.core.v01.events.PersonDepartureEvent
2023-11-29T12:48:05,464  INFO EventsManagerImpl:144   org.matsim.api.core.v01.events.handler.PersonArrivalEventHandler
2023-11-29T12:48:05,464  INFO EventsManagerImpl:205     > org.matsim.api.core.v01.events.PersonArrivalEvent
2023-11-29T12:48:05,464  INFO EventsManagerImpl:144   org.matsim.api.core.v01.events.handler.PersonStuckEventHandler
2023-11-29T12:48:05,464  INFO EventsManagerImpl:205     > org.matsim.api.core.v01.events.PersonStuckEvent
2023-11-29T12:48:05,464  INFO EventsManagerImpl:154 
2023-11-29T12:48:05,464  INFO EventsManagerImpl:138 adding Event-Handler: org.matsim.analysis.CalcLegTimes
2023-11-29T12:48:05,464  INFO EventsManagerImpl:144   org.matsim.api.core.v01.events.handler.PersonDepartureEventHandler
2023-11-29T12:48:05,465  INFO EventsManagerImpl:205     > org.matsim.api.core.v01.events.PersonDepartureEvent
2023-11-29T12:48:05,465  INFO EventsManagerImpl:144   org.matsim.api.core.v01.events.handler.PersonArrivalEventHandler
2023-11-29T12:48:05,465  INFO EventsManagerImpl:205     > org.matsim.api.core.v01.events.PersonArrivalEvent
2023-11-29T12:48:05,465  INFO EventsManagerImpl:144   org.matsim.api.core.v01.events.handler.ActivityEndEventHandler
2023-11-29T12:48:05,465  INFO EventsManagerImpl:205     > org.matsim.api.core.v01.events.ActivityEndEvent
2023-11-29T12:48:05,465  INFO EventsManagerImpl:144   org.matsim.api.core.v01.events.handler.ActivityStartEventHandler
2023-11-29T12:48:05,465  INFO EventsManagerImpl:205     > org.matsim.api.core.v01.events.ActivityStartEvent
2023-11-29T12:48:05,465  INFO EventsManagerImpl:154 
2023-11-29T12:48:05,465  INFO EventsManagerImpl:138 adding Event-Handler: org.matsim.analysis.CalcLegTimes
2023-11-29T12:48:05,466  INFO EventsManagerImpl:144   org.matsim.api.core.v01.events.handler.PersonDepartureEventHandler
2023-11-29T12:48:05,466  INFO EventsManagerImpl:205     > org.matsim.api.core.v01.events.PersonDepartureEvent
2023-11-29T12:48:05,466  INFO EventsManagerImpl:144   org.matsim.api.core.v01.events.handler.PersonArrivalEventHandler
2023-11-29T12:48:05,466  INFO EventsManagerImpl:205     > org.matsim.api.core.v01.events.PersonArrivalEvent
2023-11-29T12:48:05,466  INFO EventsManagerImpl:144   org.matsim.api.core.v01.events.handler.ActivityEndEventHandler
2023-11-29T12:48:05,466  INFO EventsManagerImpl:205     > org.matsim.api.core.v01.events.ActivityEndEvent
2023-11-29T12:48:05,466  INFO EventsManagerImpl:144   org.matsim.api.core.v01.events.handler.ActivityStartEventHandler
2023-11-29T12:48:05,466  INFO EventsManagerImpl:205     > org.matsim.api.core.v01.events.ActivityStartEvent
2023-11-29T12:48:05,466  INFO EventsManagerImpl:154 
2023-11-29T12:48:05,474  INFO AbstractController:57 Used Controler-Class: org.matsim.core.controler.NewControler
2023-11-29T12:48:05,474  INFO Config:510 ConfigConsistencyChecker with runtime type=class org.matsim.core.config.consistency.ConfigConsistencyCheckerImpl was already added; not adding it a second time
2023-11-29T12:48:05,475  INFO EventsManagerImpl:138 adding Event-Handler: org.matsim.contrib.ev.charging.ChargingEventSequenceCollector
2023-11-29T12:48:05,475  INFO EventsManagerImpl:144   org.matsim.contrib.ev.charging.QueuedAtChargerEventHandler
2023-11-29T12:48:05,475  INFO EventsManagerImpl:205     > org.matsim.contrib.ev.charging.QueuedAtChargerEvent
2023-11-29T12:48:05,475  INFO EventsManagerImpl:144   org.matsim.contrib.ev.charging.QuitQueueAtChargerEventHandler
2023-11-29T12:48:05,475  INFO EventsManagerImpl:205     > org.matsim.contrib.ev.charging.QuitQueueAtChargerEvent
2023-11-29T12:48:05,475  INFO EventsManagerImpl:144   org.matsim.contrib.ev.charging.ChargingStartEventHandler
2023-11-29T12:48:05,475  INFO EventsManagerImpl:205     > org.matsim.contrib.ev.charging.ChargingStartEvent
2023-11-29T12:48:05,475  INFO EventsManagerImpl:144   org.matsim.contrib.ev.charging.ChargingEndEventHandler
2023-11-29T12:48:05,475  INFO EventsManagerImpl:205     > org.matsim.contrib.ev.charging.ChargingEndEvent
2023-11-29T12:48:05,475  INFO EventsManagerImpl:154 
2023-11-29T12:48:05,475  INFO EventsManagerImpl:138 adding Event-Handler: org.matsim.contrib.ev.charging.ChargingEventSequenceCollector
2023-11-29T12:48:05,475  INFO EventsManagerImpl:144   org.matsim.contrib.ev.charging.QueuedAtChargerEventHandler
2023-11-29T12:48:05,476  INFO EventsManagerImpl:205     > org.matsim.contrib.ev.charging.QueuedAtChargerEvent
2023-11-29T12:48:05,476  INFO EventsManagerImpl:144   org.matsim.contrib.ev.charging.QuitQueueAtChargerEventHandler
2023-11-29T12:48:05,476  INFO EventsManagerImpl:205     > org.matsim.contrib.ev.charging.QuitQueueAtChargerEvent
2023-11-29T12:48:05,476  INFO EventsManagerImpl:144   org.matsim.contrib.ev.charging.ChargingStartEventHandler
2023-11-29T12:48:05,476  INFO EventsManagerImpl:205     > org.matsim.contrib.ev.charging.ChargingStartEvent
2023-11-29T12:48:05,476  INFO EventsManagerImpl:144   org.matsim.contrib.ev.charging.ChargingEndEventHandler
2023-11-29T12:48:05,476  INFO EventsManagerImpl:205     > org.matsim.contrib.ev.charging.ChargingEndEvent
2023-11-29T12:48:05,476  INFO EventsManagerImpl:154 
2023-11-29T12:48:05,476  INFO EventsManagerImpl:138 adding Event-Handler: org.matsim.contrib.ev.stats.ChargerPowerTimeProfileCalculator
2023-11-29T12:48:05,476  INFO EventsManagerImpl:144   org.matsim.contrib.ev.charging.ChargingStartEventHandler
2023-11-29T12:48:05,476  INFO EventsManagerImpl:205     > org.matsim.contrib.ev.charging.ChargingStartEvent
2023-11-29T12:48:05,476  INFO EventsManagerImpl:144   org.matsim.contrib.ev.charging.ChargingEndEventHandler
2023-11-29T12:48:05,476  INFO EventsManagerImpl:205     > org.matsim.contrib.ev.charging.ChargingEndEvent
2023-11-29T12:48:05,477  INFO EventsManagerImpl:154 
2023-11-29T12:48:05,477  INFO EventsManagerImpl:138 adding Event-Handler: org.matsim.contrib.ev.stats.ChargerPowerTimeProfileCalculator
2023-11-29T12:48:05,477  INFO EventsManagerImpl:144   org.matsim.contrib.ev.charging.ChargingStartEventHandler
2023-11-29T12:48:05,477  INFO EventsManagerImpl:205     > org.matsim.contrib.ev.charging.ChargingStartEvent
2023-11-29T12:48:05,477  INFO EventsManagerImpl:144   org.matsim.contrib.ev.charging.ChargingEndEventHandler
2023-11-29T12:48:05,477  INFO EventsManagerImpl:205     > org.matsim.contrib.ev.charging.ChargingEndEvent
2023-11-29T12:48:05,477  INFO EventsManagerImpl:154 
2023-11-29T12:48:05,477  INFO Injector:81 === printInjector start ===
2023-11-29T12:48:05,478  INFO Injector:85 org.matsim.contrib.ev.fleet.ElectricFleetSpecification 
2023-11-29T12:48:05,478  INFO Injector:86   --> provider: org.matsim.contrib.ev.fleet.ElectricFleetModule$1@1a47a1e8[Scopes.SINGLETON]
2023-11-29T12:48:05,478  INFO Injector:87   --> source: org.matsim.contrib.ev.fleet.ElectricFleetModule.install(ElectricFleetModule.java:46)
2023-11-29T12:48:05,478  INFO Injector:89   --> scope: eager singleton
2023-11-29T12:48:05,480  INFO Injector:94   ==full==> ProviderInstanceBinding{key=Key[type=org.matsim.contrib.ev.fleet.ElectricFleetSpecification, annotation=[none]], source=org.matsim.contrib.ev.fleet.ElectricFleetModule.install(ElectricFleetModule.java:46), scope=eager singleton, provider=org.matsim.contrib.ev.fleet.ElectricFleetModule$1@1a47a1e8}
2023-11-29T12:48:05,480  INFO Injector:96 
2023-11-29T12:48:05,480  INFO Injector:85 org.matsim.core.mobsim.qsim.AbstractQSimModule @com.google.inject.internal.Element(setName=,uniqueId=120, type=MULTIBINDER, keyType=)
2023-11-29T12:48:05,481  INFO Injector:86   --> provider: ConstantFactory{value=org.matsim.contrib.ev.fleet.ElectricFleetModule$2@1c3259fa}[Scopes.SINGLETON]
2023-11-29T12:48:05,481  INFO Injector:87   --> source: org.matsim.contrib.ev.fleet.ElectricFleetModule.install(ElectricFleetModule.java:56)
2023-11-29T12:48:05,481  INFO Injector:89   --> scope: eager singleton
2023-11-29T12:48:05,481  INFO Injector:94   ==full==> InstanceBinding{key=Key[type=org.matsim.core.mobsim.qsim.AbstractQSimModule, annotation=@com.google.inject.internal.Element(setName=,uniqueId=120, type=MULTIBINDER, keyType=)], source=org.matsim.contrib.ev.fleet.ElectricFleetModule.install(ElectricFleetModule.java:56), instance=org.matsim.contrib.ev.fleet.ElectricFleetModule$2@1c3259fa}
2023-11-29T12:48:05,481  INFO Injector:96 
2023-11-29T12:48:05,481  INFO Injector:85 org.matsim.api.core.v01.network.Network @com.google.inject.name.Named("chargers")
2023-11-29T12:48:05,489  INFO Injector:86   --> provider: FactoryProxy{key=Key[type=org.matsim.api.core.v01.network.Network, annotation=@com.google.inject.name.Named("chargers")], provider=@Provides org.matsim.core.scenario.ScenarioByInstanceModule.provideNetwork(ScenarioByInstanceModule.java:60)}[Scopes.SINGLETON]
2023-11-29T12:48:05,489  INFO Injector:87   --> source: org.matsim.contrib.ev.infrastructure.ChargingInfrastructureModule.install(ChargingInfrastructureModule.java:56)
2023-11-29T12:48:05,489  INFO Injector:89   --> scope: eager singleton
2023-11-29T12:48:05,489  INFO Injector:92   --> target: Key[type=org.matsim.api.core.v01.network.Network, annotation=[none]]
2023-11-29T12:48:05,489  INFO Injector:94   ==full==> LinkedKeyBinding{key=Key[type=org.matsim.api.core.v01.network.Network, annotation=@com.google.inject.name.Named("chargers")], source=org.matsim.contrib.ev.infrastructure.ChargingInfrastructureModule.install(ChargingInfrastructureModule.java:56), scope=eager singleton, target=Key[type=org.matsim.api.core.v01.network.Network, annotation=[none]]}
2023-11-29T12:48:05,489  INFO Injector:96 
2023-11-29T12:48:05,489  INFO Injector:85 org.matsim.contrib.ev.infrastructure.ChargingInfrastructureSpecification 
2023-11-29T12:48:05,489  INFO Injector:86   --> provider: org.matsim.contrib.ev.infrastructure.ChargingInfrastructureModule$$Lambda$291/0x00000008013f3858@3e05586b[Scopes.SINGLETON]
2023-11-29T12:48:05,489  INFO Injector:87   --> source: org.matsim.contrib.ev.infrastructure.ChargingInfrastructureModule.install(ChargingInfrastructureModule.java:58)
2023-11-29T12:48:05,489  INFO Injector:89   --> scope: eager singleton
2023-11-29T12:48:05,490  INFO Injector:94   ==full==> ProviderInstanceBinding{key=Key[type=org.matsim.contrib.ev.infrastructure.ChargingInfrastructureSpecification, annotation=[none]], source=org.matsim.contrib.ev.infrastructure.ChargingInfrastructureModule.install(ChargingInfrastructureModule.java:58), scope=eager singleton, provider=org.matsim.contrib.ev.infrastructure.ChargingInfrastructureModule$$Lambda$291/0x00000008013f3858@3e05586b}
2023-11-29T12:48:05,490  INFO Injector:96 
2023-11-29T12:48:05,490  INFO Injector:85 org.matsim.core.mobsim.qsim.AbstractQSimModule @com.google.inject.internal.Element(setName=,uniqueId=121, type=MULTIBINDER, keyType=)
2023-11-29T12:48:05,490  INFO Injector:86   --> provider: ConstantFactory{value=org.matsim.contrib.ev.infrastructure.ChargingInfrastructureModule$1@217bf99e}[Scopes.SINGLETON]
2023-11-29T12:48:05,490  INFO Injector:87   --> source: org.matsim.contrib.ev.infrastructure.ChargingInfrastructureModule.install(ChargingInfrastructureModule.java:65)
2023-11-29T12:48:05,490  INFO Injector:89   --> scope: eager singleton
2023-11-29T12:48:05,490  INFO Injector:94   ==full==> InstanceBinding{key=Key[type=org.matsim.core.mobsim.qsim.AbstractQSimModule, annotation=@com.google.inject.internal.Element(setName=,uniqueId=121, type=MULTIBINDER, keyType=)], source=org.matsim.contrib.ev.infrastructure.ChargingInfrastructureModule.install(ChargingInfrastructureModule.java:65), instance=org.matsim.contrib.ev.infrastructure.ChargingInfrastructureModule$1@217bf99e}
2023-11-29T12:48:05,490  INFO Injector:96 
2023-11-29T12:48:05,490  INFO Injector:85 org.matsim.contrib.ev.charging.ChargingLogic$Factory 
2023-11-29T12:48:05,490  INFO Injector:86   --> provider: org.matsim.contrib.ev.charging.ChargingModule$1@25f723b0
2023-11-29T12:48:05,490  INFO Injector:87   --> source: org.matsim.contrib.ev.charging.ChargingModule.install(ChargingModule.java:39)
2023-11-29T12:48:05,490  INFO Injector:89   --> scope: Scopes.NO_SCOPE
2023-11-29T12:48:05,490  INFO Injector:94   ==full==> ProviderInstanceBinding{key=Key[type=org.matsim.contrib.ev.charging.ChargingLogic$Factory, annotation=[none]], source=org.matsim.contrib.ev.charging.ChargingModule.install(ChargingModule.java:39), scope=Scopes.NO_SCOPE, provider=org.matsim.contrib.ev.charging.ChargingModule$1@25f723b0}
2023-11-29T12:48:05,491  INFO Injector:96 
2023-11-29T12:48:05,491  INFO Injector:85 org.matsim.contrib.ev.charging.ChargingPower$Factory 
2023-11-29T12:48:05,491  INFO Injector:86   --> provider: ConstantFactory{value=org.matsim.contrib.ev.charging.ChargingModule$$Lambda$292/0x00000008013f4fb0@35b17c06}[Scopes.SINGLETON]
2023-11-29T12:48:05,491  INFO Injector:87   --> source: org.matsim.contrib.ev.charging.ChargingModule.install(ChargingModule.java:47)
2023-11-29T12:48:05,491  INFO Injector:89   --> scope: eager singleton
2023-11-29T12:48:05,491  INFO Injector:94   ==full==> InstanceBinding{key=Key[type=org.matsim.contrib.ev.charging.ChargingPower$Factory, annotation=[none]], source=org.matsim.contrib.ev.charging.ChargingModule.install(ChargingModule.java:47), instance=org.matsim.contrib.ev.charging.ChargingModule$$Lambda$292/0x00000008013f4fb0@35b17c06}
2023-11-29T12:48:05,491  INFO Injector:96 
2023-11-29T12:48:05,491  INFO Injector:85 org.matsim.core.mobsim.qsim.AbstractQSimModule @com.google.inject.internal.Element(setName=,uniqueId=122, type=MULTIBINDER, keyType=)
2023-11-29T12:48:05,491  INFO Injector:86   --> provider: ConstantFactory{value=org.matsim.contrib.ev.charging.ChargingModule$2@6807a356}[Scopes.SINGLETON]
2023-11-29T12:48:05,491  INFO Injector:87   --> source: org.matsim.contrib.ev.charging.ChargingModule.install(ChargingModule.java:49)
2023-11-29T12:48:05,491  INFO Injector:89   --> scope: eager singleton
2023-11-29T12:48:05,491  INFO Injector:94   ==full==> InstanceBinding{key=Key[type=org.matsim.core.mobsim.qsim.AbstractQSimModule, annotation=@com.google.inject.internal.Element(setName=,uniqueId=122, type=MULTIBINDER, keyType=)], source=org.matsim.contrib.ev.charging.ChargingModule.install(ChargingModule.java:49), instance=org.matsim.contrib.ev.charging.ChargingModule$2@6807a356}
2023-11-29T12:48:05,491  INFO Injector:96 
2023-11-29T12:48:05,492  INFO Injector:85 org.matsim.contrib.ev.discharging.DriveEnergyConsumption$Factory 
2023-11-29T12:48:05,492  INFO Injector:86   --> provider: ConstantFactory{value=org.matsim.contrib.ev.discharging.DischargingModule$$Lambda$293/0x00000008013f5af8@45545e7a}[Scopes.SINGLETON]
2023-11-29T12:48:05,492  INFO Injector:87   --> source: org.matsim.contrib.ev.discharging.DischargingModule.install(DischargingModule.java:36)
2023-11-29T12:48:05,492  INFO Injector:89   --> scope: eager singleton
2023-11-29T12:48:05,492  INFO Injector:94   ==full==> InstanceBinding{key=Key[type=org.matsim.contrib.ev.discharging.DriveEnergyConsumption$Factory, annotation=[none]], source=org.matsim.contrib.ev.discharging.DischargingModule.install(DischargingModule.java:36), instance=org.matsim.contrib.ev.discharging.DischargingModule$$Lambda$293/0x00000008013f5af8@45545e7a}
2023-11-29T12:48:05,492  INFO Injector:96 
2023-11-29T12:48:05,492  INFO Injector:85 org.matsim.contrib.ev.temperature.TemperatureService 
2023-11-29T12:48:05,492  INFO Injector:86   --> provider: ConstantFactory{value=org.matsim.contrib.ev.discharging.DischargingModule$$Lambda$294/0x00000008013f5ef8@9f674ac}[Scopes.SINGLETON]
2023-11-29T12:48:05,492  INFO Injector:87   --> source: org.matsim.contrib.ev.discharging.DischargingModule.install(DischargingModule.java:37)
2023-11-29T12:48:05,492  INFO Injector:89   --> scope: eager singleton
2023-11-29T12:48:05,492  INFO Injector:94   ==full==> InstanceBinding{key=Key[type=org.matsim.contrib.ev.temperature.TemperatureService, annotation=[none]], source=org.matsim.contrib.ev.discharging.DischargingModule.install(DischargingModule.java:37), instance=org.matsim.contrib.ev.discharging.DischargingModule$$Lambda$294/0x00000008013f5ef8@9f674ac}
2023-11-29T12:48:05,492  INFO Injector:96 
2023-11-29T12:48:05,493  INFO Injector:85 org.matsim.contrib.ev.discharging.AuxEnergyConsumption$Factory 
2023-11-29T12:48:05,493  INFO Injector:86   --> provider: FactoryProxy{key=Key[type=org.matsim.contrib.ev.discharging.AuxEnergyConsumption$Factory, annotation=[none]], provider=com.google.inject.internal.ConstructorBindingImpl$Factory@1da4b3f9}[Scopes.SINGLETON]
2023-11-29T12:48:05,493  INFO Injector:87   --> source: org.matsim.contrib.ev.discharging.DischargingModule.install(DischargingModule.java:38)
2023-11-29T12:48:05,493  INFO Injector:89   --> scope: Scopes.SINGLETON
2023-11-29T12:48:05,493  INFO Injector:92   --> target: Key[type=org.matsim.contrib.ev.discharging.OhdeSlaskiAuxEnergyConsumption$Factory, annotation=[none]]
2023-11-29T12:48:05,493  INFO Injector:94   ==full==> LinkedKeyBinding{key=Key[type=org.matsim.contrib.ev.discharging.AuxEnergyConsumption$Factory, annotation=[none]], source=org.matsim.contrib.ev.discharging.DischargingModule.install(DischargingModule.java:38), scope=Scopes.SINGLETON, target=Key[type=org.matsim.contrib.ev.discharging.OhdeSlaskiAuxEnergyConsumption$Factory, annotation=[none]]}
2023-11-29T12:48:05,493  INFO Injector:96 
2023-11-29T12:48:05,493  INFO Injector:85 org.matsim.core.mobsim.qsim.AbstractQSimModule @com.google.inject.internal.Element(setName=,uniqueId=123, type=MULTIBINDER, keyType=)
2023-11-29T12:48:05,493  INFO Injector:86   --> provider: ConstantFactory{value=org.matsim.contrib.ev.discharging.DischargingModule$1@7ddd84b5}[Scopes.SINGLETON]
2023-11-29T12:48:05,493  INFO Injector:87   --> source: org.matsim.contrib.ev.discharging.DischargingModule.install(DischargingModule.java:40)
2023-11-29T12:48:05,493  INFO Injector:89   --> scope: eager singleton
2023-11-29T12:48:05,493  INFO Injector:94   ==full==> InstanceBinding{key=Key[type=org.matsim.core.mobsim.qsim.AbstractQSimModule, annotation=@com.google.inject.internal.Element(setName=,uniqueId=123, type=MULTIBINDER, keyType=)], source=org.matsim.contrib.ev.discharging.DischargingModule.install(DischargingModule.java:40), instance=org.matsim.contrib.ev.discharging.DischargingModule$1@7ddd84b5}
2023-11-29T12:48:05,494  INFO Injector:96 
2023-11-29T12:48:05,494  INFO Injector:85 org.matsim.core.events.handler.EventHandler @com.google.inject.internal.Element(setName=,uniqueId=124, type=MULTIBINDER, keyType=)
2023-11-29T12:48:05,494  INFO Injector:86   --> provider: FactoryProxy{key=Key[type=org.matsim.core.events.handler.EventHandler, annotation=@com.google.inject.internal.Element(setName=,uniqueId=124, type=MULTIBINDER, keyType=)], provider=com.google.inject.internal.ConstructorBindingImpl$Factory@23cbbd07[Scopes.SINGLETON]}
2023-11-29T12:48:05,494  INFO Injector:87   --> source: org.matsim.contrib.ev.stats.EvStatsModule.install(EvStatsModule.java:46)
2023-11-29T12:48:05,494  INFO Injector:89   --> scope: Scopes.NO_SCOPE
2023-11-29T12:48:05,494  INFO Injector:92   --> target: Key[type=org.matsim.contrib.ev.charging.ChargingEventSequenceCollector, annotation=[none]]
2023-11-29T12:48:05,494  INFO Injector:94   ==full==> LinkedKeyBinding{key=Key[type=org.matsim.core.events.handler.EventHandler, annotation=@com.google.inject.internal.Element(setName=,uniqueId=124, type=MULTIBINDER, keyType=)], source=org.matsim.contrib.ev.stats.EvStatsModule.install(EvStatsModule.java:46), scope=Scopes.NO_SCOPE, target=Key[type=org.matsim.contrib.ev.charging.ChargingEventSequenceCollector, annotation=[none]]}
2023-11-29T12:48:05,494  INFO Injector:96 
2023-11-29T12:48:05,494  INFO Injector:85 org.matsim.core.controler.listener.ControlerListener @com.google.inject.internal.Element(setName=,uniqueId=125, type=MULTIBINDER, keyType=)
2023-11-29T12:48:05,495  INFO Injector:86   --> provider: FactoryProxy{key=Key[type=org.matsim.core.controler.listener.ControlerListener, annotation=@com.google.inject.internal.Element(setName=,uniqueId=125, type=MULTIBINDER, keyType=)], provider=com.google.inject.internal.ConstructorBindingImpl$Factory@448b808a}[Scopes.SINGLETON]
2023-11-29T12:48:05,495  INFO Injector:87   --> source: org.matsim.contrib.ev.stats.EvStatsModule.install(EvStatsModule.java:47)
2023-11-29T12:48:05,495  INFO Injector:89   --> scope: Scopes.SINGLETON
2023-11-29T12:48:05,495  INFO Injector:92   --> target: Key[type=org.matsim.contrib.ev.stats.ChargingProceduresCSVWriter, annotation=[none]]
2023-11-29T12:48:05,495  INFO Injector:94   ==full==> LinkedKeyBinding{key=Key[type=org.matsim.core.controler.listener.ControlerListener, annotation=@com.google.inject.internal.Element(setName=,uniqueId=125, type=MULTIBINDER, keyType=)], source=org.matsim.contrib.ev.stats.EvStatsModule.install(EvStatsModule.java:47), scope=Scopes.SINGLETON, target=Key[type=org.matsim.contrib.ev.stats.ChargingProceduresCSVWriter, annotation=[none]]}
2023-11-29T12:48:05,495  INFO Injector:96 
2023-11-29T12:48:05,495  INFO Injector:85 org.matsim.core.mobsim.qsim.AbstractQSimModule @com.google.inject.internal.Element(setName=,uniqueId=126, type=MULTIBINDER, keyType=)
2023-11-29T12:48:05,495  INFO Injector:86   --> provider: ConstantFactory{value=org.matsim.contrib.ev.stats.EvStatsModule$1@73aeef7d}[Scopes.SINGLETON]
2023-11-29T12:48:05,495  INFO Injector:87   --> source: org.matsim.contrib.ev.stats.EvStatsModule.install(EvStatsModule.java:49)
2023-11-29T12:48:05,495  INFO Injector:89   --> scope: eager singleton
2023-11-29T12:48:05,495  INFO Injector:94   ==full==> InstanceBinding{key=Key[type=org.matsim.core.mobsim.qsim.AbstractQSimModule, annotation=@com.google.inject.internal.Element(setName=,uniqueId=126, type=MULTIBINDER, keyType=)], source=org.matsim.contrib.ev.stats.EvStatsModule.install(EvStatsModule.java:49), instance=org.matsim.contrib.ev.stats.EvStatsModule$1@73aeef7d}
2023-11-29T12:48:05,495  INFO Injector:96 
2023-11-29T12:48:05,495  INFO Injector:85 org.matsim.core.events.handler.EventHandler @com.google.inject.internal.Element(setName=,uniqueId=127, type=MULTIBINDER, keyType=)
2023-11-29T12:48:05,495  INFO Injector:86   --> provider: FactoryProxy{key=Key[type=org.matsim.core.events.handler.EventHandler, annotation=@com.google.inject.internal.Element(setName=,uniqueId=127, type=MULTIBINDER, keyType=)], provider=com.google.inject.internal.ConstructorBindingImpl$Factory@7e62cfa3[Scopes.SINGLETON]}
2023-11-29T12:48:05,496  INFO Injector:87   --> source: org.matsim.contrib.ev.stats.EvStatsModule.install(EvStatsModule.java:70)
2023-11-29T12:48:05,496  INFO Injector:89   --> scope: Scopes.NO_SCOPE
2023-11-29T12:48:05,496  INFO Injector:92   --> target: Key[type=org.matsim.contrib.ev.stats.ChargerPowerTimeProfileCalculator, annotation=[none]]
2023-11-29T12:48:05,496  INFO Injector:94   ==full==> LinkedKeyBinding{key=Key[type=org.matsim.core.events.handler.EventHandler, annotation=@com.google.inject.internal.Element(setName=,uniqueId=127, type=MULTIBINDER, keyType=)], source=org.matsim.contrib.ev.stats.EvStatsModule.install(EvStatsModule.java:70), scope=Scopes.NO_SCOPE, target=Key[type=org.matsim.contrib.ev.stats.ChargerPowerTimeProfileCalculator, annotation=[none]]}
2023-11-29T12:48:05,496  INFO Injector:96 
2023-11-29T12:48:05,496  INFO Injector:85 org.matsim.core.controler.listener.ControlerListener @com.google.inject.internal.Element(setName=,uniqueId=128, type=MULTIBINDER, keyType=)
2023-11-29T12:48:05,496  INFO Injector:86   --> provider: org.matsim.contrib.ev.stats.EvStatsModule$2@4aa11206
2023-11-29T12:48:05,496  INFO Injector:87   --> source: org.matsim.contrib.ev.stats.EvStatsModule.install(EvStatsModule.java:71)
2023-11-29T12:48:05,496  INFO Injector:89   --> scope: Scopes.NO_SCOPE
2023-11-29T12:48:05,496  INFO Injector:94   ==full==> ProviderInstanceBinding{key=Key[type=org.matsim.core.controler.listener.ControlerListener, annotation=@com.google.inject.internal.Element(setName=,uniqueId=128, type=MULTIBINDER, keyType=)], source=org.matsim.contrib.ev.stats.EvStatsModule.install(EvStatsModule.java:71), scope=Scopes.NO_SCOPE, provider=org.matsim.contrib.ev.stats.EvStatsModule$2@4aa11206}
2023-11-29T12:48:05,496  INFO Injector:96 
2023-11-29T12:48:05,496  INFO Injector:85 org.matsim.core.mobsim.qsim.AbstractQSimModule @com.google.inject.internal.Element(setName=,uniqueId=129, type=MULTIBINDER, keyType=)
2023-11-29T12:48:05,497  INFO Injector:86   --> provider: ConstantFactory{value=org.matsim.contrib.ev.EvModule$1@d675f9f}[Scopes.SINGLETON]
2023-11-29T12:48:05,497  INFO Injector:87   --> source: org.matsim.contrib.ev.EvModule.install(EvModule.java:41)
2023-11-29T12:48:05,497  INFO Injector:89   --> scope: eager singleton
2023-11-29T12:48:05,497  INFO Injector:94   ==full==> InstanceBinding{key=Key[type=org.matsim.core.mobsim.qsim.AbstractQSimModule, annotation=@com.google.inject.internal.Element(setName=,uniqueId=129, type=MULTIBINDER, keyType=)], source=org.matsim.contrib.ev.EvModule.install(EvModule.java:41), instance=org.matsim.contrib.ev.EvModule$1@d675f9f}
2023-11-29T12:48:05,497  INFO Injector:96 
2023-11-29T12:48:05,497  INFO Injector:85 org.matsim.core.router.RoutingModule @com.google.inject.name.Named("car")
2023-11-29T12:48:05,497  INFO Injector:86   --> provider: org.matsim.contrib.ev.routing.EvNetworkRoutingProvider@40d60f2
2023-11-29T12:48:05,497  INFO Injector:87   --> source: org.matsim.contrib.ev.example.RunEvExample$1.install(RunEvExample.java:73)
2023-11-29T12:48:05,497  INFO Injector:89   --> scope: Scopes.NO_SCOPE
2023-11-29T12:48:05,497  INFO Injector:94   ==full==> ProviderInstanceBinding{key=Key[type=org.matsim.core.router.RoutingModule, annotation=@com.google.inject.name.Named("car")], source=org.matsim.contrib.ev.example.RunEvExample$1.install(RunEvExample.java:73), scope=Scopes.NO_SCOPE, provider=org.matsim.contrib.ev.routing.EvNetworkRoutingProvider@40d60f2}
2023-11-29T12:48:05,497  INFO Injector:96 
2023-11-29T12:48:05,497  INFO Injector:85 org.matsim.api.core.v01.Scenario 
2023-11-29T12:48:05,497  INFO Injector:86   --> provider: ConstantFactory{value=org.matsim.core.scenario.MutableScenario@46e190ed}[Scopes.SINGLETON]
2023-11-29T12:48:05,497  INFO Injector:87   --> source: org.matsim.core.scenario.ScenarioByInstanceModule.install(ScenarioByInstanceModule.java:52)
2023-11-29T12:48:05,498  INFO Injector:89   --> scope: eager singleton
2023-11-29T12:48:05,498  INFO Injector:94   ==full==> InstanceBinding{key=Key[type=org.matsim.api.core.v01.Scenario, annotation=[none]], source=org.matsim.core.scenario.ScenarioByInstanceModule.install(ScenarioByInstanceModule.java:52), instance=org.matsim.core.scenario.MutableScenario@46e190ed}
2023-11-29T12:48:05,498  INFO Injector:96 
2023-11-29T12:48:05,498  INFO Injector:85 org.matsim.facilities.ActivityFacilities 
2023-11-29T12:48:05,498  INFO Injector:86   --> provider: @Provides org.matsim.core.scenario.ScenarioByInstanceModule.provideActivityFacilities(ScenarioByInstanceModule.java:72)
2023-11-29T12:48:05,499  INFO Injector:87   --> source: org.matsim.facilities.ActivityFacilities org.matsim.core.scenario.ScenarioByInstanceModule.provideActivityFacilities(org.matsim.api.core.v01.Scenario)
2023-11-29T12:48:05,499  INFO Injector:89   --> scope: Scopes.NO_SCOPE
2023-11-29T12:48:05,499  INFO Injector:94   ==full==> ProviderInstanceBinding{key=Key[type=org.matsim.facilities.ActivityFacilities, annotation=[none]], source=org.matsim.facilities.ActivityFacilities org.matsim.core.scenario.ScenarioByInstanceModule.provideActivityFacilities(org.matsim.api.core.v01.Scenario), scope=Scopes.NO_SCOPE, provider=@Provides org.matsim.core.scenario.ScenarioByInstanceModule.provideActivityFacilities(ScenarioByInstanceModule.java:72)}
2023-11-29T12:48:05,500  INFO Injector:96 
2023-11-29T12:48:05,500  INFO Injector:85 org.matsim.households.Households 
2023-11-29T12:48:05,500  INFO Injector:86   --> provider: @Provides org.matsim.core.scenario.ScenarioByInstanceModule.provideHouseholds(ScenarioByInstanceModule.java:77)
2023-11-29T12:48:05,500  INFO Injector:87   --> source: org.matsim.households.Households org.matsim.core.scenario.ScenarioByInstanceModule.provideHouseholds(org.matsim.api.core.v01.Scenario)
2023-11-29T12:48:05,500  INFO Injector:89   --> scope: Scopes.NO_SCOPE
2023-11-29T12:48:05,500  INFO Injector:94   ==full==> ProviderInstanceBinding{key=Key[type=org.matsim.households.Households, annotation=[none]], source=org.matsim.households.Households org.matsim.core.scenario.ScenarioByInstanceModule.provideHouseholds(org.matsim.api.core.v01.Scenario), scope=Scopes.NO_SCOPE, provider=@Provides org.matsim.core.scenario.ScenarioByInstanceModule.provideHouseholds(ScenarioByInstanceModule.java:77)}
2023-11-29T12:48:05,500  INFO Injector:96 
2023-11-29T12:48:05,500  INFO Injector:85 org.matsim.lanes.Lanes 
2023-11-29T12:48:05,500  INFO Injector:86   --> provider: @Provides org.matsim.core.scenario.ScenarioByInstanceModule.provideLanes(ScenarioByInstanceModule.java:87)
2023-11-29T12:48:05,500  INFO Injector:87   --> source: org.matsim.lanes.Lanes org.matsim.core.scenario.ScenarioByInstanceModule.provideLanes(org.matsim.api.core.v01.Scenario)
2023-11-29T12:48:05,500  INFO Injector:89   --> scope: Scopes.NO_SCOPE
2023-11-29T12:48:05,501  INFO Injector:94   ==full==> ProviderInstanceBinding{key=Key[type=org.matsim.lanes.Lanes, annotation=[none]], source=org.matsim.lanes.Lanes org.matsim.core.scenario.ScenarioByInstanceModule.provideLanes(org.matsim.api.core.v01.Scenario), scope=Scopes.NO_SCOPE, provider=@Provides org.matsim.core.scenario.ScenarioByInstanceModule.provideLanes(ScenarioByInstanceModule.java:87)}
2023-11-29T12:48:05,501  INFO Injector:96 
2023-11-29T12:48:05,501  INFO Injector:85 org.matsim.api.core.v01.network.Network 
2023-11-29T12:48:05,501  INFO Injector:86   --> provider: @Provides org.matsim.core.scenario.ScenarioByInstanceModule.provideNetwork(ScenarioByInstanceModule.java:60)
2023-11-29T12:48:05,501  INFO Injector:87   --> source: org.matsim.api.core.v01.network.Network org.matsim.core.scenario.ScenarioByInstanceModule.provideNetwork(org.matsim.api.core.v01.Scenario)
2023-11-29T12:48:05,501  INFO Injector:89   --> scope: Scopes.NO_SCOPE
2023-11-29T12:48:05,501  INFO Injector:94   ==full==> ProviderInstanceBinding{key=Key[type=org.matsim.api.core.v01.network.Network, annotation=[none]], source=org.matsim.api.core.v01.network.Network org.matsim.core.scenario.ScenarioByInstanceModule.provideNetwork(org.matsim.api.core.v01.Scenario), scope=Scopes.NO_SCOPE, provider=@Provides org.matsim.core.scenario.ScenarioByInstanceModule.provideNetwork(ScenarioByInstanceModule.java:60)}
2023-11-29T12:48:05,501  INFO Injector:96 
2023-11-29T12:48:05,501  INFO Injector:85 org.matsim.api.core.v01.population.Population 
2023-11-29T12:48:05,501  INFO Injector:86   --> provider: @Provides org.matsim.core.scenario.ScenarioByInstanceModule.providePopulation(ScenarioByInstanceModule.java:64)
2023-11-29T12:48:05,501  INFO Injector:87   --> source: org.matsim.api.core.v01.population.Population org.matsim.core.scenario.ScenarioByInstanceModule.providePopulation(org.matsim.api.core.v01.Scenario)
2023-11-29T12:48:05,501  INFO Injector:89   --> scope: Scopes.NO_SCOPE
2023-11-29T12:48:05,501  INFO Injector:94   ==full==> ProviderInstanceBinding{key=Key[type=org.matsim.api.core.v01.population.Population, annotation=[none]], source=org.matsim.api.core.v01.population.Population org.matsim.core.scenario.ScenarioByInstanceModule.providePopulation(org.matsim.api.core.v01.Scenario), scope=Scopes.NO_SCOPE, provider=@Provides org.matsim.core.scenario.ScenarioByInstanceModule.providePopulation(ScenarioByInstanceModule.java:64)}
2023-11-29T12:48:05,501  INFO Injector:96 
2023-11-29T12:48:05,502  INFO Injector:85 org.matsim.api.core.v01.population.PopulationFactory 
2023-11-29T12:48:05,502  INFO Injector:86   --> provider: @Provides org.matsim.core.scenario.ScenarioByInstanceModule.providePopulationFactory(ScenarioByInstanceModule.java:68)
2023-11-29T12:48:05,502  INFO Injector:87   --> source: org.matsim.api.core.v01.population.PopulationFactory org.matsim.core.scenario.ScenarioByInstanceModule.providePopulationFactory(org.matsim.api.core.v01.population.Population)
2023-11-29T12:48:05,502  INFO Injector:89   --> scope: Scopes.NO_SCOPE
2023-11-29T12:48:05,502  INFO Injector:94   ==full==> ProviderInstanceBinding{key=Key[type=org.matsim.api.core.v01.population.PopulationFactory, annotation=[none]], source=org.matsim.api.core.v01.population.PopulationFactory org.matsim.core.scenario.ScenarioByInstanceModule.providePopulationFactory(org.matsim.api.core.v01.population.Population), scope=Scopes.NO_SCOPE, provider=@Provides org.matsim.core.scenario.ScenarioByInstanceModule.providePopulationFactory(ScenarioByInstanceModule.java:68)}
2023-11-29T12:48:05,502  INFO Injector:96 
2023-11-29T12:48:05,502  INFO Injector:85 org.matsim.vehicles.Vehicles 
2023-11-29T12:48:05,502  INFO Injector:86   --> provider: @Provides org.matsim.core.scenario.ScenarioByInstanceModule.provideVehicles(ScenarioByInstanceModule.java:82)
2023-11-29T12:48:05,502  INFO Injector:87   --> source: org.matsim.vehicles.Vehicles org.matsim.core.scenario.ScenarioByInstanceModule.provideVehicles(org.matsim.api.core.v01.Scenario)
2023-11-29T12:48:05,502  INFO Injector:89   --> scope: Scopes.NO_SCOPE
2023-11-29T12:48:05,502  INFO Injector:94   ==full==> ProviderInstanceBinding{key=Key[type=org.matsim.vehicles.Vehicles, annotation=[none]], source=org.matsim.vehicles.Vehicles org.matsim.core.scenario.ScenarioByInstanceModule.provideVehicles(org.matsim.api.core.v01.Scenario), scope=Scopes.NO_SCOPE, provider=@Provides org.matsim.core.scenario.ScenarioByInstanceModule.provideVehicles(ScenarioByInstanceModule.java:82)}
2023-11-29T12:48:05,502  INFO Injector:96 
2023-11-29T12:48:05,502  INFO Injector:85 org.matsim.core.controler.ControlerI 
2023-11-29T12:48:05,503  INFO Injector:86   --> provider: FactoryProxy{key=Key[type=org.matsim.core.controler.ControlerI, annotation=[none]], provider=com.google.inject.internal.ConstructorBindingImpl$Factory@20ab76ee}[Scopes.SINGLETON]
2023-11-29T12:48:05,503  INFO Injector:87   --> source: org.matsim.core.controler.NewControlerModule.install(NewControlerModule.java:30)
2023-11-29T12:48:05,503  INFO Injector:89   --> scope: eager singleton
2023-11-29T12:48:05,503  INFO Injector:92   --> target: Key[type=org.matsim.core.controler.NewControler, annotation=[none]]
2023-11-29T12:48:05,503  INFO Injector:94   ==full==> LinkedKeyBinding{key=Key[type=org.matsim.core.controler.ControlerI, annotation=[none]], source=org.matsim.core.controler.NewControlerModule.install(NewControlerModule.java:30), scope=eager singleton, target=Key[type=org.matsim.core.controler.NewControler, annotation=[none]]}
2023-11-29T12:48:05,503  INFO Injector:96 
2023-11-29T12:48:05,503  INFO Injector:85 org.matsim.core.controler.ControlerListenerManager 
2023-11-29T12:48:05,503  INFO Injector:86   --> provider: FactoryProxy{key=Key[type=org.matsim.core.controler.ControlerListenerManager, annotation=[none]], provider=com.google.inject.internal.ConstructorBindingImpl$Factory@485caa8f[Scopes.SINGLETON]}
2023-11-29T12:48:05,503  INFO Injector:87   --> source: org.matsim.core.controler.NewControlerModule.install(NewControlerModule.java:32)
2023-11-29T12:48:05,503  INFO Injector:89   --> scope: Scopes.NO_SCOPE
2023-11-29T12:48:05,503  INFO Injector:92   --> target: Key[type=org.matsim.core.controler.ControlerListenerManagerImpl, annotation=[none]]
2023-11-29T12:48:05,503  INFO Injector:94   ==full==> LinkedKeyBinding{key=Key[type=org.matsim.core.controler.ControlerListenerManager, annotation=[none]], source=org.matsim.core.controler.NewControlerModule.install(NewControlerModule.java:32), scope=Scopes.NO_SCOPE, target=Key[type=org.matsim.core.controler.ControlerListenerManagerImpl, annotation=[none]]}
2023-11-29T12:48:05,503  INFO Injector:96 
2023-11-29T12:48:05,503  INFO Injector:85 org.matsim.core.controler.TerminationCriterion 
2023-11-29T12:48:05,504  INFO Injector:86   --> provider: FactoryProxy{key=Key[type=org.matsim.core.controler.TerminationCriterion, annotation=[none]], provider=com.google.inject.internal.ConstructorBindingImpl$Factory@2703d91}
2023-11-29T12:48:05,504  INFO Injector:87   --> source: org.matsim.core.controler.NewControlerModule.install(NewControlerModule.java:36)
2023-11-29T12:48:05,504  INFO Injector:89   --> scope: Scopes.NO_SCOPE
2023-11-29T12:48:05,504  INFO Injector:92   --> target: Key[type=org.matsim.core.controler.TerminateAtFixedIterationNumber, annotation=[none]]
2023-11-29T12:48:05,504  INFO Injector:94   ==full==> LinkedKeyBinding{key=Key[type=org.matsim.core.controler.TerminationCriterion, annotation=[none]], source=org.matsim.core.controler.NewControlerModule.install(NewControlerModule.java:36), scope=Scopes.NO_SCOPE, target=Key[type=org.matsim.core.controler.TerminateAtFixedIterationNumber, annotation=[none]]}
2023-11-29T12:48:05,504  INFO Injector:96 
2023-11-29T12:48:05,504  INFO Injector:85 org.matsim.core.controler.MatsimServices 
2023-11-29T12:48:05,504  INFO Injector:86   --> provider: FactoryProxy{key=Key[type=org.matsim.core.controler.MatsimServices, annotation=[none]], provider=com.google.inject.internal.ConstructorBindingImpl$Factory@5be052ca}
2023-11-29T12:48:05,504  INFO Injector:87   --> source: org.matsim.core.controler.NewControlerModule.install(NewControlerModule.java:37)
2023-11-29T12:48:05,504  INFO Injector:89   --> scope: Scopes.NO_SCOPE
2023-11-29T12:48:05,504  INFO Injector:92   --> target: Key[type=org.matsim.core.controler.MatsimServicesImpl, annotation=[none]]
2023-11-29T12:48:05,504  INFO Injector:94   ==full==> LinkedKeyBinding{key=Key[type=org.matsim.core.controler.MatsimServices, annotation=[none]], source=org.matsim.core.controler.NewControlerModule.install(NewControlerModule.java:37), scope=Scopes.NO_SCOPE, target=Key[type=org.matsim.core.controler.MatsimServicesImpl, annotation=[none]]}
2023-11-29T12:48:05,504  INFO Injector:96 
2023-11-29T12:48:05,505  INFO Injector:85 org.matsim.core.controler.IterationCounter 
2023-11-29T12:48:05,505  INFO Injector:86   --> provider: FactoryProxy{key=Key[type=org.matsim.core.controler.IterationCounter, annotation=[none]], provider=com.google.inject.internal.ConstructorBindingImpl$Factory@5be052ca}
2023-11-29T12:48:05,505  INFO Injector:87   --> source: org.matsim.core.controler.NewControlerModule.install(NewControlerModule.java:39)
2023-11-29T12:48:05,505  INFO Injector:89   --> scope: Scopes.NO_SCOPE
2023-11-29T12:48:05,505  INFO Injector:92   --> target: Key[type=org.matsim.core.controler.MatsimServicesImpl, annotation=[none]]
2023-11-29T12:48:05,505  INFO Injector:94   ==full==> LinkedKeyBinding{key=Key[type=org.matsim.core.controler.IterationCounter, annotation=[none]], source=org.matsim.core.controler.NewControlerModule.install(NewControlerModule.java:39), scope=Scopes.NO_SCOPE, target=Key[type=org.matsim.core.controler.MatsimServicesImpl, annotation=[none]]}
2023-11-29T12:48:05,505  INFO Injector:96 
2023-11-29T12:48:05,505  INFO Injector:85 org.matsim.core.controler.PrepareForSim 
2023-11-29T12:48:05,505  INFO Injector:86   --> provider: FactoryProxy{key=Key[type=org.matsim.core.controler.PrepareForSim, annotation=[none]], provider=com.google.inject.internal.ConstructorBindingImpl$Factory@2007435e}
2023-11-29T12:48:05,505  INFO Injector:87   --> source: org.matsim.core.controler.NewControlerModule.install(NewControlerModule.java:43)
2023-11-29T12:48:05,505  INFO Injector:89   --> scope: Scopes.NO_SCOPE
2023-11-29T12:48:05,505  INFO Injector:92   --> target: Key[type=org.matsim.core.controler.PrepareForSimImpl, annotation=[none]]
2023-11-29T12:48:05,505  INFO Injector:94   ==full==> LinkedKeyBinding{key=Key[type=org.matsim.core.controler.PrepareForSim, annotation=[none]], source=org.matsim.core.controler.NewControlerModule.install(NewControlerModule.java:43), scope=Scopes.NO_SCOPE, target=Key[type=org.matsim.core.controler.PrepareForSimImpl, annotation=[none]]}
2023-11-29T12:48:05,506  INFO Injector:96 
2023-11-29T12:48:05,506  INFO Injector:85 org.matsim.core.controler.PrepareForMobsim 
2023-11-29T12:48:05,506  INFO Injector:86   --> provider: FactoryProxy{key=Key[type=org.matsim.core.controler.PrepareForMobsim, annotation=[none]], provider=com.google.inject.internal.ConstructorBindingImpl$Factory@da28d03}
2023-11-29T12:48:05,506  INFO Injector:87   --> source: org.matsim.core.controler.NewControlerModule.install(NewControlerModule.java:44)
2023-11-29T12:48:05,506  INFO Injector:89   --> scope: Scopes.NO_SCOPE
2023-11-29T12:48:05,506  INFO Injector:92   --> target: Key[type=org.matsim.core.controler.PrepareForMobsimImpl, annotation=[none]]
2023-11-29T12:48:05,506  INFO Injector:94   ==full==> LinkedKeyBinding{key=Key[type=org.matsim.core.controler.PrepareForMobsim, annotation=[none]], source=org.matsim.core.controler.NewControlerModule.install(NewControlerModule.java:44), scope=Scopes.NO_SCOPE, target=Key[type=org.matsim.core.controler.PrepareForMobsimImpl, annotation=[none]]}
2023-11-29T12:48:05,506  INFO Injector:96 
2023-11-29T12:48:05,506  INFO Injector:85 org.matsim.core.controler.corelisteners.PlansScoring 
2023-11-29T12:48:05,506  INFO Injector:86   --> provider: FactoryProxy{key=Key[type=org.matsim.core.controler.corelisteners.PlansScoring, annotation=[none]], provider=com.google.inject.internal.ConstructorBindingImpl$Factory@ebda593[Scopes.SINGLETON]}
2023-11-29T12:48:05,506  INFO Injector:87   --> source: org.matsim.core.scoring.PlansScoringModule.install(PlansScoringModule.java:33)
2023-11-29T12:48:05,506  INFO Injector:89   --> scope: Scopes.NO_SCOPE
2023-11-29T12:48:05,506  INFO Injector:92   --> target: Key[type=org.matsim.core.scoring.PlansScoringImpl, annotation=[none]]
2023-11-29T12:48:05,506  INFO Injector:94   ==full==> LinkedKeyBinding{key=Key[type=org.matsim.core.controler.corelisteners.PlansScoring, annotation=[none]], source=org.matsim.core.scoring.PlansScoringModule.install(PlansScoringModule.java:33), scope=Scopes.NO_SCOPE, target=Key[type=org.matsim.core.scoring.PlansScoringImpl, annotation=[none]]}
2023-11-29T12:48:05,506  INFO Injector:96 
2023-11-29T12:48:05,507  INFO Injector:85 org.matsim.core.scoring.ExperiencedPlansService 
2023-11-29T12:48:05,507  INFO Injector:86   --> provider: FactoryProxy{key=Key[type=org.matsim.core.scoring.ExperiencedPlansService, annotation=[none]], provider=com.google.inject.internal.ConstructorBindingImpl$Factory@5792c08c}[Scopes.SINGLETON]
2023-11-29T12:48:05,507  INFO Injector:87   --> source: org.matsim.core.scoring.PlansScoringModule.install(PlansScoringModule.java:34)
2023-11-29T12:48:05,507  INFO Injector:89   --> scope: eager singleton
2023-11-29T12:48:05,507  INFO Injector:92   --> target: Key[type=org.matsim.core.scoring.ExperiencedPlansServiceImpl, annotation=[none]]
2023-11-29T12:48:05,507  INFO Injector:94   ==full==> LinkedKeyBinding{key=Key[type=org.matsim.core.scoring.ExperiencedPlansService, annotation=[none]], source=org.matsim.core.scoring.PlansScoringModule.install(PlansScoringModule.java:34), scope=eager singleton, target=Key[type=org.matsim.core.scoring.ExperiencedPlansServiceImpl, annotation=[none]]}
2023-11-29T12:48:05,507  INFO Injector:96 
2023-11-29T12:48:05,507  INFO Injector:85 org.matsim.core.controler.corelisteners.PlansReplanning 
2023-11-29T12:48:05,507  INFO Injector:86   --> provider: FactoryProxy{key=Key[type=org.matsim.core.controler.corelisteners.PlansReplanning, annotation=[none]], provider=com.google.inject.internal.ConstructorBindingImpl$Factory@4d157493[Scopes.SINGLETON]}
2023-11-29T12:48:05,507  INFO Injector:87   --> source: org.matsim.core.controler.corelisteners.ControlerDefaultCoreListenersModule.install(ControlerDefaultCoreListenersModule.java:38)
2023-11-29T12:48:05,507  INFO Injector:89   --> scope: Scopes.NO_SCOPE
2023-11-29T12:48:05,507  INFO Injector:92   --> target: Key[type=org.matsim.core.controler.corelisteners.PlansReplanningImpl, annotation=[none]]
2023-11-29T12:48:05,507  INFO Injector:94   ==full==> LinkedKeyBinding{key=Key[type=org.matsim.core.controler.corelisteners.PlansReplanning, annotation=[none]], source=org.matsim.core.controler.corelisteners.ControlerDefaultCoreListenersModule.install(ControlerDefaultCoreListenersModule.java:38), scope=Scopes.NO_SCOPE, target=Key[type=org.matsim.core.controler.corelisteners.PlansReplanningImpl, annotation=[none]]}
2023-11-29T12:48:05,507  INFO Injector:96 
2023-11-29T12:48:05,507  INFO Injector:85 org.matsim.core.controler.corelisteners.PlansDumping 
2023-11-29T12:48:05,508  INFO Injector:86   --> provider: FactoryProxy{key=Key[type=org.matsim.core.controler.corelisteners.PlansDumping, annotation=[none]], provider=com.google.inject.internal.ConstructorBindingImpl$Factory@54c622a7[Scopes.SINGLETON]}
2023-11-29T12:48:05,508  INFO Injector:87   --> source: org.matsim.core.controler.corelisteners.ControlerDefaultCoreListenersModule.install(ControlerDefaultCoreListenersModule.java:39)
2023-11-29T12:48:05,508  INFO Injector:89   --> scope: Scopes.NO_SCOPE
2023-11-29T12:48:05,508  INFO Injector:92   --> target: Key[type=org.matsim.core.controler.corelisteners.PlansDumpingImpl, annotation=[none]]
2023-11-29T12:48:05,508  INFO Injector:94   ==full==> LinkedKeyBinding{key=Key[type=org.matsim.core.controler.corelisteners.PlansDumping, annotation=[none]], source=org.matsim.core.controler.corelisteners.ControlerDefaultCoreListenersModule.install(ControlerDefaultCoreListenersModule.java:39), scope=Scopes.NO_SCOPE, target=Key[type=org.matsim.core.controler.corelisteners.PlansDumpingImpl, annotation=[none]]}
2023-11-29T12:48:05,508  INFO Injector:96 
2023-11-29T12:48:05,508  INFO Injector:85 org.matsim.core.controler.corelisteners.EventsHandling 
2023-11-29T12:48:05,508  INFO Injector:86   --> provider: FactoryProxy{key=Key[type=org.matsim.core.controler.corelisteners.EventsHandling, annotation=[none]], provider=com.google.inject.internal.ConstructorBindingImpl$Factory@37348491[Scopes.SINGLETON]}
2023-11-29T12:48:05,508  INFO Injector:87   --> source: org.matsim.core.controler.corelisteners.ControlerDefaultCoreListenersModule.install(ControlerDefaultCoreListenersModule.java:40)
2023-11-29T12:48:05,508  INFO Injector:89   --> scope: Scopes.NO_SCOPE
2023-11-29T12:48:05,508  INFO Injector:92   --> target: Key[type=org.matsim.core.controler.corelisteners.EventsHandlingImpl, annotation=[none]]
2023-11-29T12:48:05,508  INFO Injector:94   ==full==> LinkedKeyBinding{key=Key[type=org.matsim.core.controler.corelisteners.EventsHandling, annotation=[none]], source=org.matsim.core.controler.corelisteners.ControlerDefaultCoreListenersModule.install(ControlerDefaultCoreListenersModule.java:40), scope=Scopes.NO_SCOPE, target=Key[type=org.matsim.core.controler.corelisteners.EventsHandlingImpl, annotation=[none]]}
2023-11-29T12:48:05,508  INFO Injector:96 
2023-11-29T12:48:05,508  INFO Injector:85 org.matsim.core.controler.corelisteners.DumpDataAtEnd 
2023-11-29T12:48:05,508  INFO Injector:86   --> provider: FactoryProxy{key=Key[type=org.matsim.core.controler.corelisteners.DumpDataAtEnd, annotation=[none]], provider=com.google.inject.internal.ConstructorBindingImpl$Factory@76e3b45b[Scopes.SINGLETON]}
2023-11-29T12:48:05,509  INFO Injector:87   --> source: org.matsim.core.controler.corelisteners.ControlerDefaultCoreListenersModule.install(ControlerDefaultCoreListenersModule.java:41)
2023-11-29T12:48:05,509  INFO Injector:89   --> scope: Scopes.NO_SCOPE
2023-11-29T12:48:05,509  INFO Injector:92   --> target: Key[type=org.matsim.core.controler.corelisteners.DumpDataAtEndImpl, annotation=[none]]
2023-11-29T12:48:05,509  INFO Injector:94   ==full==> LinkedKeyBinding{key=Key[type=org.matsim.core.controler.corelisteners.DumpDataAtEnd, annotation=[none]], source=org.matsim.core.controler.corelisteners.ControlerDefaultCoreListenersModule.install(ControlerDefaultCoreListenersModule.java:41), scope=Scopes.NO_SCOPE, target=Key[type=org.matsim.core.controler.corelisteners.DumpDataAtEndImpl, annotation=[none]]}
2023-11-29T12:48:05,509  INFO Injector:96 
2023-11-29T12:48:05,509  INFO Injector:85 org.matsim.core.api.experimental.events.EventsManager 
2023-11-29T12:48:05,509  INFO Injector:86   --> provider: FactoryProxy{key=Key[type=org.matsim.core.api.experimental.events.EventsManager, annotation=[none]], provider=com.google.inject.internal.ConstructorBindingImpl$Factory@10b4e7f8}[Scopes.SINGLETON]
2023-11-29T12:48:05,509  INFO Injector:87   --> source: org.matsim.core.events.EventsManagerModule.install(EventsManagerModule.java:46)
2023-11-29T12:48:05,509  INFO Injector:89   --> scope: Scopes.SINGLETON
2023-11-29T12:48:05,509  INFO Injector:92   --> target: Key[type=org.matsim.core.events.SimStepParallelEventsManagerImpl, annotation=[none]]
2023-11-29T12:48:05,509  INFO Injector:94   ==full==> LinkedKeyBinding{key=Key[type=org.matsim.core.api.experimental.events.EventsManager, annotation=[none]], source=org.matsim.core.events.EventsManagerModule.install(EventsManagerModule.java:46), scope=Scopes.SINGLETON, target=Key[type=org.matsim.core.events.SimStepParallelEventsManagerImpl, annotation=[none]]}
2023-11-29T12:48:05,509  INFO Injector:96 
2023-11-29T12:48:05,509  INFO Injector:85 org.matsim.core.mobsim.qsim.components.QSimComponentsConfig 
2023-11-29T12:48:05,510  INFO Injector:86   --> provider: @Provides org.matsim.core.mobsim.qsim.components.QSimComponentsModule.provideDefaultQSimComponentsConfig(QSimComponentsModule.java:34)[Scopes.SINGLETON]
2023-11-29T12:48:05,510  INFO Injector:87   --> source: public org.matsim.core.mobsim.qsim.components.QSimComponentsConfig org.matsim.core.mobsim.qsim.components.QSimComponentsModule.provideDefaultQSimComponentsConfig(org.matsim.core.config.Config)
2023-11-29T12:48:05,510  INFO Injector:89   --> scope: Scopes.SINGLETON
2023-11-29T12:48:05,510  INFO Injector:94   ==full==> ProviderInstanceBinding{key=Key[type=org.matsim.core.mobsim.qsim.components.QSimComponentsConfig, annotation=[none]], source=public org.matsim.core.mobsim.qsim.components.QSimComponentsConfig org.matsim.core.mobsim.qsim.components.QSimComponentsModule.provideDefaultQSimComponentsConfig(org.matsim.core.config.Config), scope=Scopes.SINGLETON, provider=@Provides org.matsim.core.mobsim.qsim.components.QSimComponentsModule.provideDefaultQSimComponentsConfig(QSimComponentsModule.java:34)}
2023-11-29T12:48:05,511  INFO Injector:96 
2023-11-29T12:48:05,511  INFO Injector:85 org.matsim.core.mobsim.qsim.AbstractQSimModule @com.google.inject.internal.Element(setName=,uniqueId=98, type=MULTIBINDER, keyType=)
2023-11-29T12:48:05,511  INFO Injector:86   --> provider: ConstantFactory{value=org.matsim.core.mobsim.qsim.messagequeueengine.MessageQueueModule@58af5076}[Scopes.SINGLETON]
2023-11-29T12:48:05,511  INFO Injector:87   --> source: org.matsim.core.mobsim.qsim.QSimModule.lambda$install$0(QSimModule.java:94)
2023-11-29T12:48:05,511  INFO Injector:89   --> scope: eager singleton
2023-11-29T12:48:05,511  INFO Injector:94   ==full==> InstanceBinding{key=Key[type=org.matsim.core.mobsim.qsim.AbstractQSimModule, annotation=@com.google.inject.internal.Element(setName=,uniqueId=98, type=MULTIBINDER, keyType=)], source=org.matsim.core.mobsim.qsim.QSimModule.lambda$install$0(QSimModule.java:94), instance=org.matsim.core.mobsim.qsim.messagequeueengine.MessageQueueModule@58af5076}
2023-11-29T12:48:05,511  INFO Injector:96 
2023-11-29T12:48:05,511  INFO Injector:85 org.matsim.core.mobsim.qsim.AbstractQSimModule @com.google.inject.internal.Element(setName=,uniqueId=99, type=MULTIBINDER, keyType=)
2023-11-29T12:48:05,511  INFO Injector:86   --> provider: ConstantFactory{value=org.matsim.core.mobsim.qsim.ActivityEngineModule@49469ffa}[Scopes.SINGLETON]
2023-11-29T12:48:05,511  INFO Injector:87   --> source: org.matsim.core.mobsim.qsim.QSimModule.lambda$install$0(QSimModule.java:94)
2023-11-29T12:48:05,511  INFO Injector:89   --> scope: eager singleton
2023-11-29T12:48:05,511  INFO Injector:94   ==full==> InstanceBinding{key=Key[type=org.matsim.core.mobsim.qsim.AbstractQSimModule, annotation=@com.google.inject.internal.Element(setName=,uniqueId=99, type=MULTIBINDER, keyType=)], source=org.matsim.core.mobsim.qsim.QSimModule.lambda$install$0(QSimModule.java:94), instance=org.matsim.core.mobsim.qsim.ActivityEngineModule@49469ffa}
2023-11-29T12:48:05,511  INFO Injector:96 
2023-11-29T12:48:05,511  INFO Injector:85 org.matsim.core.mobsim.qsim.AbstractQSimModule @com.google.inject.internal.Element(setName=,uniqueId=100, type=MULTIBINDER, keyType=)
2023-11-29T12:48:05,511  INFO Injector:86   --> provider: ConstantFactory{value=org.matsim.core.mobsim.qsim.qnetsimengine.QNetsimEngineModule@4d9754a8}[Scopes.SINGLETON]
2023-11-29T12:48:05,512  INFO Injector:87   --> source: org.matsim.core.mobsim.qsim.QSimModule.lambda$install$0(QSimModule.java:94)
2023-11-29T12:48:05,512  INFO Injector:89   --> scope: eager singleton
2023-11-29T12:48:05,512  INFO Injector:94   ==full==> InstanceBinding{key=Key[type=org.matsim.core.mobsim.qsim.AbstractQSimModule, annotation=@com.google.inject.internal.Element(setName=,uniqueId=100, type=MULTIBINDER, keyType=)], source=org.matsim.core.mobsim.qsim.QSimModule.lambda$install$0(QSimModule.java:94), instance=org.matsim.core.mobsim.qsim.qnetsimengine.QNetsimEngineModule@4d9754a8}
2023-11-29T12:48:05,512  INFO Injector:96 
2023-11-29T12:48:05,512  INFO Injector:85 org.matsim.core.mobsim.qsim.AbstractQSimModule @com.google.inject.internal.Element(setName=,uniqueId=101, type=MULTIBINDER, keyType=)
2023-11-29T12:48:05,512  INFO Injector:86   --> provider: ConstantFactory{value=org.matsim.core.mobsim.qsim.TeleportationModule@7a3b7122}[Scopes.SINGLETON]
2023-11-29T12:48:05,512  INFO Injector:87   --> source: org.matsim.core.mobsim.qsim.QSimModule.lambda$install$0(QSimModule.java:94)
2023-11-29T12:48:05,512  INFO Injector:89   --> scope: eager singleton
2023-11-29T12:48:05,512  INFO Injector:94   ==full==> InstanceBinding{key=Key[type=org.matsim.core.mobsim.qsim.AbstractQSimModule, annotation=@com.google.inject.internal.Element(setName=,uniqueId=101, type=MULTIBINDER, keyType=)], source=org.matsim.core.mobsim.qsim.QSimModule.lambda$install$0(QSimModule.java:94), instance=org.matsim.core.mobsim.qsim.TeleportationModule@7a3b7122}
2023-11-29T12:48:05,512  INFO Injector:96 
2023-11-29T12:48:05,512  INFO Injector:85 org.matsim.core.mobsim.qsim.AbstractQSimModule @com.google.inject.internal.Element(setName=,uniqueId=102, type=MULTIBINDER, keyType=)
2023-11-29T12:48:05,512  INFO Injector:86   --> provider: ConstantFactory{value=org.matsim.core.mobsim.qsim.PopulationModule@58b5a2f3}[Scopes.SINGLETON]
2023-11-29T12:48:05,512  INFO Injector:87   --> source: org.matsim.core.mobsim.qsim.QSimModule.lambda$install$0(QSimModule.java:94)
2023-11-29T12:48:05,512  INFO Injector:89   --> scope: eager singleton
2023-11-29T12:48:05,512  INFO Injector:94   ==full==> InstanceBinding{key=Key[type=org.matsim.core.mobsim.qsim.AbstractQSimModule, annotation=@com.google.inject.internal.Element(setName=,uniqueId=102, type=MULTIBINDER, keyType=)], source=org.matsim.core.mobsim.qsim.QSimModule.lambda$install$0(QSimModule.java:94), instance=org.matsim.core.mobsim.qsim.PopulationModule@58b5a2f3}
2023-11-29T12:48:05,512  INFO Injector:96 
2023-11-29T12:48:05,513  INFO Injector:85 org.matsim.core.mobsim.qsim.AbstractQSimModule @com.google.inject.internal.Element(setName=,uniqueId=103, type=MULTIBINDER, keyType=)
2023-11-29T12:48:05,513  INFO Injector:86   --> provider: ConstantFactory{value=org.matsim.core.mobsim.qsim.changeeventsengine.NetworkChangeEventsModule@25f15f50}[Scopes.SINGLETON]
2023-11-29T12:48:05,513  INFO Injector:87   --> source: org.matsim.core.mobsim.qsim.QSimModule.lambda$install$0(QSimModule.java:94)
2023-11-29T12:48:05,513  INFO Injector:89   --> scope: eager singleton
2023-11-29T12:48:05,513  INFO Injector:94   ==full==> InstanceBinding{key=Key[type=org.matsim.core.mobsim.qsim.AbstractQSimModule, annotation=@com.google.inject.internal.Element(setName=,uniqueId=103, type=MULTIBINDER, keyType=)], source=org.matsim.core.mobsim.qsim.QSimModule.lambda$install$0(QSimModule.java:94), instance=org.matsim.core.mobsim.qsim.changeeventsengine.NetworkChangeEventsModule@25f15f50}
2023-11-29T12:48:05,513  INFO Injector:96 
2023-11-29T12:48:05,513  INFO Injector:85 org.matsim.core.mobsim.qsim.AbstractQSimModule @com.google.inject.internal.Element(setName=,uniqueId=104, type=MULTIBINDER, keyType=)
2023-11-29T12:48:05,513  INFO Injector:86   --> provider: ConstantFactory{value=org.matsim.core.mobsim.qsim.pt.TransitEngineModule@52b46d52}[Scopes.SINGLETON]
2023-11-29T12:48:05,513  INFO Injector:87   --> source: org.matsim.core.mobsim.qsim.QSimModule.lambda$install$0(QSimModule.java:94)
2023-11-29T12:48:05,513  INFO Injector:89   --> scope: eager singleton
2023-11-29T12:48:05,513  INFO Injector:94   ==full==> InstanceBinding{key=Key[type=org.matsim.core.mobsim.qsim.AbstractQSimModule, annotation=@com.google.inject.internal.Element(setName=,uniqueId=104, type=MULTIBINDER, keyType=)], source=org.matsim.core.mobsim.qsim.QSimModule.lambda$install$0(QSimModule.java:94), instance=org.matsim.core.mobsim.qsim.pt.TransitEngineModule@52b46d52}
2023-11-29T12:48:05,513  INFO Injector:96 
2023-11-29T12:48:05,513  INFO Injector:85 org.matsim.core.mobsim.framework.Mobsim 
2023-11-29T12:48:05,513  INFO Injector:86   --> provider: Key[type=org.matsim.core.mobsim.qsim.QSimProvider, annotation=[none]]
2023-11-29T12:48:05,514  INFO Injector:87   --> source: org.matsim.core.mobsim.qsim.QSimModule.install(QSimModule.java:109)
2023-11-29T12:48:05,514  INFO Injector:89   --> scope: Scopes.NO_SCOPE
2023-11-29T12:48:05,514  INFO Injector:94   ==full==> ProviderKeyBinding{key=Key[type=org.matsim.core.mobsim.framework.Mobsim, annotation=[none]], source=org.matsim.core.mobsim.qsim.QSimModule.install(QSimModule.java:109), scope=Scopes.NO_SCOPE, provider=Key[type=org.matsim.core.mobsim.qsim.QSimProvider, annotation=[none]]}
2023-11-29T12:48:05,514  INFO Injector:96 
2023-11-29T12:48:05,514  INFO Injector:85 org.matsim.core.controler.listener.ControlerListener @com.google.inject.internal.Element(setName=,uniqueId=105, type=MULTIBINDER, keyType=)
2023-11-29T12:48:05,514  INFO Injector:86   --> provider: FactoryProxy{key=Key[type=org.matsim.core.controler.listener.ControlerListener, annotation=@com.google.inject.internal.Element(setName=,uniqueId=105, type=MULTIBINDER, keyType=)], provider=com.google.inject.internal.ConstructorBindingImpl$Factory@75023c53[Scopes.SINGLETON]}
2023-11-29T12:48:05,514  INFO Injector:87   --> source: org.matsim.core.events.MobsimScopeEventHandlingModule.install(MobsimScopeEventHandlingModule.java:39)
2023-11-29T12:48:05,514  INFO Injector:89   --> scope: Scopes.NO_SCOPE
2023-11-29T12:48:05,514  INFO Injector:92   --> target: Key[type=org.matsim.core.events.MobsimScopeEventHandling, annotation=[none]]
2023-11-29T12:48:05,514  INFO Injector:94   ==full==> LinkedKeyBinding{key=Key[type=org.matsim.core.controler.listener.ControlerListener, annotation=@com.google.inject.internal.Element(setName=,uniqueId=105, type=MULTIBINDER, keyType=)], source=org.matsim.core.events.MobsimScopeEventHandlingModule.install(MobsimScopeEventHandlingModule.java:39), scope=Scopes.NO_SCOPE, target=Key[type=org.matsim.core.events.MobsimScopeEventHandling, annotation=[none]]}
2023-11-29T12:48:05,514  INFO Injector:96 
2023-11-29T12:48:05,514  INFO Injector:85 org.matsim.core.mobsim.qsim.AbstractQSimModule @com.google.inject.internal.Element(setName=,uniqueId=106, type=MULTIBINDER, keyType=)
2023-11-29T12:48:05,515  INFO Injector:86   --> provider: ConstantFactory{value=org.matsim.core.events.MobsimScopeEventHandlingModule$1@7327a447}[Scopes.SINGLETON]
2023-11-29T12:48:05,515  INFO Injector:87   --> source: org.matsim.core.events.MobsimScopeEventHandlingModule.install(MobsimScopeEventHandlingModule.java:41)
2023-11-29T12:48:05,515  INFO Injector:89   --> scope: eager singleton
2023-11-29T12:48:05,515  INFO Injector:94   ==full==> InstanceBinding{key=Key[type=org.matsim.core.mobsim.qsim.AbstractQSimModule, annotation=@com.google.inject.internal.Element(setName=,uniqueId=106, type=MULTIBINDER, keyType=)], source=org.matsim.core.events.MobsimScopeEventHandlingModule.install(MobsimScopeEventHandlingModule.java:41), instance=org.matsim.core.events.MobsimScopeEventHandlingModule$1@7327a447}
2023-11-29T12:48:05,515  INFO Injector:96 
2023-11-29T12:48:05,515  INFO Injector:85 org.matsim.core.trafficmonitoring.TravelTimeCalculator @com.google.inject.name.Named("car")
2023-11-29T12:48:05,515  INFO Injector:86   --> provider: org.matsim.core.trafficmonitoring.TravelTimeCalculatorModule$SingleModeTravelTimeCalculatorProvider@7d21852b[Scopes.SINGLETON]
2023-11-29T12:48:05,515  INFO Injector:87   --> source: org.matsim.core.trafficmonitoring.TravelTimeCalculatorModule.install(TravelTimeCalculatorModule.java:65)
2023-11-29T12:48:05,515  INFO Injector:89   --> scope: Scopes.SINGLETON
2023-11-29T12:48:05,515  INFO Injector:94   ==full==> ProviderInstanceBinding{key=Key[type=org.matsim.core.trafficmonitoring.TravelTimeCalculator, annotation=@com.google.inject.name.Named("car")], source=org.matsim.core.trafficmonitoring.TravelTimeCalculatorModule.install(TravelTimeCalculatorModule.java:65), scope=Scopes.SINGLETON, provider=org.matsim.core.trafficmonitoring.TravelTimeCalculatorModule$SingleModeTravelTimeCalculatorProvider@7d21852b}
2023-11-29T12:48:05,515  INFO Injector:96 
2023-11-29T12:48:05,515  INFO Injector:85 org.matsim.core.router.util.TravelTime @com.google.inject.name.Named("car")
2023-11-29T12:48:05,515  INFO Injector:86   --> provider: org.matsim.core.trafficmonitoring.TravelTimeCalculatorModule$1@6cd98a05[Scopes.SINGLETON]
2023-11-29T12:48:05,515  INFO Injector:87   --> source: org.matsim.core.trafficmonitoring.TravelTimeCalculatorModule.install(TravelTimeCalculatorModule.java:68)
2023-11-29T12:48:05,515  INFO Injector:89   --> scope: Scopes.SINGLETON
2023-11-29T12:48:05,515  INFO Injector:94   ==full==> ProviderInstanceBinding{key=Key[type=org.matsim.core.router.util.TravelTime, annotation=@com.google.inject.name.Named("car")], source=org.matsim.core.trafficmonitoring.TravelTimeCalculatorModule.install(TravelTimeCalculatorModule.java:68), scope=Scopes.SINGLETON, provider=org.matsim.core.trafficmonitoring.TravelTimeCalculatorModule$1@6cd98a05}
2023-11-29T12:48:05,515  INFO Injector:96 
2023-11-29T12:48:05,516  INFO Injector:85 org.matsim.core.router.costcalculators.TravelDisutilityFactory @com.google.inject.name.Named("car")
2023-11-29T12:48:05,516  INFO Injector:86   --> provider: ConstantFactory{value=org.matsim.core.router.costcalculators.RandomizingTimeDistanceTravelDisutilityFactory@66813e6e}[Scopes.SINGLETON]
2023-11-29T12:48:05,516  INFO Injector:87   --> source: org.matsim.core.router.costcalculators.TravelDisutilityModule.install(TravelDisutilityModule.java:37)
2023-11-29T12:48:05,516  INFO Injector:89   --> scope: eager singleton
2023-11-29T12:48:05,516  INFO Injector:94   ==full==> InstanceBinding{key=Key[type=org.matsim.core.router.costcalculators.TravelDisutilityFactory, annotation=@com.google.inject.name.Named("car")], source=org.matsim.core.router.costcalculators.TravelDisutilityModule.install(TravelDisutilityModule.java:37), instance=org.matsim.core.router.costcalculators.RandomizingTimeDistanceTravelDisutilityFactory@66813e6e}
2023-11-29T12:48:05,516  INFO Injector:96 
2023-11-29T12:48:05,516  INFO Injector:85 org.matsim.core.scoring.ScoringFunctionFactory 
[...]
2023-11-29T12:48:06,728  INFO MobsimListenerManager:54   assigned class org.matsim.core.mobsim.framework.listeners.MobsimListener to interface org.matsim.core.mobsim.framework.listeners.MobsimBeforeCleanupListener
2023-11-29T12:48:06,728  INFO MobsimListenerManager:54   assigned class org.matsim.core.mobsim.framework.listeners.MobsimListener to interface org.matsim.core.mobsim.framework.listeners.MobsimListener
2023-11-29T12:48:06,728  INFO QSimProvider:155 Added MobsimListener class org.matsim.contrib.ev.stats.EnergyConsumptionCollector
2023-11-29T12:48:06,736  INFO PopulationUtils:1237 adding scenario element for allpersons container
2023-11-29T12:48:06,736  INFO PopulationImpl:107  person # 1
2023-11-29T12:48:06,736  INFO PopulationImpl:107  person # 4
2023-11-29T12:48:06,736  INFO VehicleUtils:372 adding scenario element for allvehicles container
2023-11-29T12:48:06,736  INFO Counter:70 [VehiclesImpl] added vehicle # 1
2023-11-29T12:48:06,736  INFO Counter:70 [VehiclesImpl] added vehicle # 2
2023-11-29T12:48:06,737  INFO Counter:70 [VehiclesImpl] added vehicle # 4
2023-11-29T12:48:06,737  INFO Counter:70 [VehiclesImpl] added vehicle # 8
2023-11-29T12:48:06,763  INFO AbstractQNetsimEngine:429 Assigned 24432 nodes and 39275 links to QSimEngineRunner #0
2023-11-29T12:48:06,786  INFO AbstractQNetsimEngine:367 SIMULATION (QNetsimEngine) AT 00:00:00 : #links=0 #nodes=0
2023-11-29T12:48:06,792  INFO QSim:566 SIMULATION (NEW QSim) AT 00:00:00 : #Veh=15 lost=0 simT=0.0s realT=0s; (s/r): 0.0
2023-11-29T12:48:07,020  INFO AbstractQNetsimEngine:367 SIMULATION (QNetsimEngine) AT 01:00:00 : #links=0 #nodes=0
2023-11-29T12:48:07,021  INFO QSim:566 SIMULATION (NEW QSim) AT 01:00:00 : #Veh=15 lost=0 simT=3600.0s realT=0s; (s/r): Infinity
2023-11-29T12:48:07,185  INFO AbstractQNetsimEngine:367 SIMULATION (QNetsimEngine) AT 02:00:00 : #links=0 #nodes=0
2023-11-29T12:48:07,185  INFO QSim:566 SIMULATION (NEW QSim) AT 02:00:00 : #Veh=15 lost=0 simT=7200.0s realT=0s; (s/r): Infinity
2023-11-29T12:48:07,348  INFO AbstractQNetsimEngine:367 SIMULATION (QNetsimEngine) AT 03:00:00 : #links=0 #nodes=0
2023-11-29T12:48:07,348  INFO QSim:566 SIMULATION (NEW QSim) AT 03:00:00 : #Veh=15 lost=0 simT=10800.0s realT=0s; (s/r): Infinity
2023-11-29T12:48:07,517  INFO AbstractQNetsimEngine:367 SIMULATION (QNetsimEngine) AT 04:00:00 : #links=0 #nodes=0
2023-11-29T12:48:07,518  INFO QSim:566 SIMULATION (NEW QSim) AT 04:00:00 : #Veh=15 lost=0 simT=14400.0s realT=0s; (s/r): Infinity
2023-11-29T12:48:07,673  INFO AbstractQNetsimEngine:367 SIMULATION (QNetsimEngine) AT 05:00:00 : #links=0 #nodes=0
2023-11-29T12:48:07,673  INFO QSim:566 SIMULATION (NEW QSim) AT 05:00:00 : #Veh=15 lost=0 simT=18000.0s realT=1s; (s/r): 18000.0
2023-11-29T12:48:07,827  INFO AbstractQNetsimEngine:367 SIMULATION (QNetsimEngine) AT 06:00:00 : #links=0 #nodes=0
2023-11-29T12:48:07,827  INFO QSim:566 SIMULATION (NEW QSim) AT 06:00:00 : #Veh=15 lost=0 simT=21600.0s realT=1s; (s/r): 21600.0
2023-11-29T12:48:07,979  INFO AbstractQNetsimEngine:367 SIMULATION (QNetsimEngine) AT 07:00:00 : #links=0 #nodes=0
2023-11-29T12:48:07,979  INFO QSim:566 SIMULATION (NEW QSim) AT 07:00:00 : #Veh=15 lost=0 simT=25200.0s realT=1s; (s/r): 25200.0
2023-11-29T12:48:07,981  INFO EventsManagerImpl:115  event # 1
2023-11-29T12:48:07,984  INFO EventsManagerImpl:115  event # 4
2023-11-29T12:48:07,991  INFO EventsManagerImpl:115  event # 16
2023-11-29T12:48:08,012  INFO EventsManagerImpl:115  event # 64
2023-11-29T12:48:08,040  INFO EventsManagerImpl:115  event # 256
2023-11-29T12:48:08,117  INFO EventsManagerImpl:115  event # 1024
2023-11-29T12:48:08,198  INFO AbstractQNetsimEngine:367 SIMULATION (QNetsimEngine) AT 08:00:00 : #links=7 #nodes=1
2023-11-29T12:48:08,198  INFO QSim:566 SIMULATION (NEW QSim) AT 08:00:00 : #Veh=15 lost=0 simT=28800.0s realT=1s; (s/r): 28800.0
2023-11-29T12:48:08,280  INFO EventsManagerImpl:115  event # 4096
2023-11-29T12:48:08,430  INFO AbstractQNetsimEngine:367 SIMULATION (QNetsimEngine) AT 09:00:00 : #links=8 #nodes=0
2023-11-29T12:48:08,430  INFO QSim:566 SIMULATION (NEW QSim) AT 09:00:00 : #Veh=15 lost=0 simT=32400.0s realT=1s; (s/r): 32400.0
2023-11-29T12:48:08,599  INFO EventsManagerImpl:115  event # 16384
2023-11-29T12:48:08,627  INFO AbstractQNetsimEngine:367 SIMULATION (QNetsimEngine) AT 10:00:00 : #links=4 #nodes=0
2023-11-29T12:48:08,627  INFO QSim:566 SIMULATION (NEW QSim) AT 10:00:00 : #Veh=15 lost=0 simT=36000.0s realT=2s; (s/r): 18000.0
2023-11-29T12:48:08,808  INFO AbstractQNetsimEngine:367 SIMULATION (QNetsimEngine) AT 11:00:00 : #links=3 #nodes=2
2023-11-29T12:48:08,808  INFO QSim:566 SIMULATION (NEW QSim) AT 11:00:00 : #Veh=15 lost=0 simT=39600.0s realT=2s; (s/r): 19800.0
2023-11-29T12:48:08,986  INFO AbstractQNetsimEngine:367 SIMULATION (QNetsimEngine) AT 12:00:00 : #links=4 #nodes=0
2023-11-29T12:48:08,986  INFO QSim:566 SIMULATION (NEW QSim) AT 12:00:00 : #Veh=15 lost=0 simT=43200.0s realT=2s; (s/r): 21600.0
2023-11-29T12:48:09,160  INFO AbstractQNetsimEngine:367 SIMULATION (QNetsimEngine) AT 13:00:00 : #links=4 #nodes=0
2023-11-29T12:48:09,160  INFO QSim:566 SIMULATION (NEW QSim) AT 13:00:00 : #Veh=15 lost=0 simT=46800.0s realT=2s; (s/r): 23400.0
2023-11-29T12:48:09,344  INFO AbstractQNetsimEngine:367 SIMULATION (QNetsimEngine) AT 14:00:00 : #links=6 #nodes=1
2023-11-29T12:48:09,344  INFO QSim:566 SIMULATION (NEW QSim) AT 14:00:00 : #Veh=15 lost=0 simT=50400.0s realT=2s; (s/r): 25200.0
2023-11-29T12:48:09,545  INFO AbstractQNetsimEngine:367 SIMULATION (QNetsimEngine) AT 15:00:00 : #links=5 #nodes=0
2023-11-29T12:48:09,545  INFO QSim:566 SIMULATION (NEW QSim) AT 15:00:00 : #Veh=14 lost=0 simT=54000.0s realT=2s; (s/r): 27000.0
2023-11-29T12:48:09,711  INFO AbstractQNetsimEngine:367 SIMULATION (QNetsimEngine) AT 16:00:00 : #links=6 #nodes=0
2023-11-29T12:48:09,711  INFO QSim:566 SIMULATION (NEW QSim) AT 16:00:00 : #Veh=7 lost=0 simT=57600.0s realT=3s; (s/r): 19200.0
2023-11-29T12:48:09,715  INFO EventsManagerImpl:115  event # 65536
2023-11-29T12:48:11,476  INFO Gbl:196 Thread performance: Thread=class org.matsim.core.events.SimStepParallelEventsManagerImpl$ProcessEventsRunnable0  cpu-time=0.90625sec
2023-11-29T12:48:11,477  INFO AbstractController$9:237 ### ITERATION 0 fires after mobsim event
2023-11-29T12:48:11,477  INFO ControlerListenerManagerImpl:269 calling notifyAfterMobsim on org.matsim.analysis.LegTimesControlerListener with priority 0.0
2023-11-29T12:48:11,480  INFO LegTimesControlerListener:51 [0] average trip (probably: leg) duration is: 3069 seconds = 00:51:09
2023-11-29T12:48:11,480  INFO ControlerListenerManagerImpl:269 calling notifyAfterMobsim on org.matsim.core.events.MobsimScopeEventHandling with priority 0.0
2023-11-29T12:48:11,481  INFO EventsManagerImpl:159 removing Event-Handler: org.matsim.contrib.ev.discharging.DriveDischargingHandler
2023-11-29T12:48:11,481  INFO EventsManagerImpl:159 removing Event-Handler: org.matsim.contrib.ev.discharging.DriveDischargingHandler
2023-11-29T12:48:11,481  INFO EventsManagerImpl:159 removing Event-Handler: org.matsim.contrib.ev.discharging.IdleDischargingHandler
2023-11-29T12:48:11,481  INFO EventsManagerImpl:159 removing Event-Handler: org.matsim.contrib.ev.discharging.IdleDischargingHandler
2023-11-29T12:48:11,481  INFO EventsManagerImpl:159 removing Event-Handler: org.matsim.contrib.ev.stats.EnergyConsumptionCollector
2023-11-29T12:48:11,481  INFO EventsManagerImpl:159 removing Event-Handler: org.matsim.contrib.ev.stats.EnergyConsumptionCollector
2023-11-29T12:48:11,481  INFO EventsManagerImpl:159 removing Event-Handler: org.matsim.contrib.ev.eTruckTraffic.stats.ChargerQueuingCollector
2023-11-29T12:48:11,481  INFO EventsManagerImpl:159 removing Event-Handler: org.matsim.contrib.ev.eTruckTraffic.stats.ChargerQueuingCollector
2023-11-29T12:48:11,481  INFO EventsManagerImpl:159 removing Event-Handler: org.matsim.contrib.ev.charging.VehicleChargingHandler
2023-11-29T12:48:11,481  INFO EventsManagerImpl:159 removing Event-Handler: org.matsim.contrib.ev.charging.VehicleChargingHandler
2023-11-29T12:48:11,482  INFO ControlerListenerManagerImpl:269 calling notifyAfterMobsim on org.matsim.core.scoring.EventsToActivities$1 with priority 0.0
2023-11-29T12:48:11,482  INFO ControlerListenerManagerImpl:272 [it.0] all ControlerAfterMobsimListeners called.
2023-11-29T12:48:11,483  INFO AbstractController$4:162 ### ITERATION 0 fires scoring event
2023-11-29T12:48:11,483  INFO ControlerListenerManagerImpl:197 calling notifyScoring on org.matsim.core.scoring.PlansScoringImpl with priority 0.0
2023-11-29T12:48:11,487  INFO NewScoreAssignerImpl:58 it: 0 msaStart: null
2023-11-29T12:48:11,487  INFO ControlerListenerManagerImpl:209 [it.0] all ControlerScoringListeners called.
2023-11-29T12:48:11,488  INFO AbstractController$5:170 ### ITERATION 0 fires iteration end event
2023-11-29T12:48:11,488  INFO ControlerListenerManagerImpl:172 calling notifyIterationEnds on org.matsim.core.controler.corelisteners.EventsHandlingImpl with priority 0.0
2023-11-29T12:48:11,489  INFO EventsManagerImpl:159 removing Event-Handler: org.matsim.core.events.algorithms.EventWriterXML
2023-11-29T12:48:11,489  INFO EventsManagerImpl:159 removing Event-Handler: org.matsim.core.events.algorithms.EventWriterXML
2023-11-29T12:48:11,489  INFO ControlerListenerManagerImpl:172 calling notifyIterationEnds on org.matsim.core.scoring.PlansScoringImpl with priority 0.0
2023-11-29T12:48:11,489  INFO ControlerListenerManagerImpl:180 calling notifyIterationEnds on org.matsim.counts.CountsControlerListener with priority 0.0
2023-11-29T12:48:11,489  INFO ControlerListenerManagerImpl:180 calling notifyIterationEnds on org.matsim.analysis.ModeStatsControlerListener with priority 0.0
2023-11-29T12:48:11,490  INFO ModeStatsControlerListener:140 Mode shares over all 15.0 trips found. MainModeIdentifier: class org.matsim.core.router.DefaultAnalysisMainModeIdentifier
2023-11-29T12:48:11,490  INFO ModeStatsControlerListener:147 -- mode share of mode car = 1.0
2023-11-29T12:48:11,490  INFO ControlerListenerManagerImpl:180 calling notifyIterationEnds on org.matsim.analysis.ScoreStatsControlerListener with priority 0.0
2023-11-29T12:48:11,491  INFO ScoreStatsControlerListener:147 -- avg. score of the executed plan of each agent: 70.23269028778601
2023-11-29T12:48:11,491  INFO ScoreStatsControlerListener:148 -- avg. score of the worst plan of each agent: 70.23269028778601
2023-11-29T12:48:11,491  INFO ScoreStatsControlerListener:149 -- avg. of the avg. plan score per agent: 70.23269028778601
2023-11-29T12:48:11,492  INFO ScoreStatsControlerListener:150 -- avg. score of the best plan of each agent: 70.23269028778601
2023-11-29T12:48:11,497  INFO ControlerListenerManagerImpl:180 calling notifyIterationEnds on org.matsim.analysis.IterationTravelStatsControlerListener with priority 0.0
2023-11-29T12:48:11,505  INFO TravelDistanceStats:149 -- average leg distance per plan (executed plans only): 94414.58709783597 meters
2023-11-29T12:48:11,505  INFO TravelDistanceStats:150 average leg distance per Person (executed plans only): 377658.3483913439 meters (statistic on all 60 legs which have a finite distance)
2023-11-29T12:48:11,505  INFO TravelDistanceStats:151 -- average trip distance per plan (executed plans only): 377658.34839134396 meters
2023-11-29T12:48:11,505  INFO TravelDistanceStats:152 average trip distance per Person (executed plans only): 377658.34839134396 meters (statistic on all 15 trips which have a finite distance)
2023-11-29T12:48:11,505  INFO TravelDistanceStats:153 (TravelDistanceStats takes an average over all legs where the simulation reports travelled (network) distances
2023-11-29T12:48:11,506  INFO TravelDistanceStats:154 (and teleported legs whose route contains a distance.)
2023-11-29T12:48:11,727  INFO ControlerListenerManagerImpl:180 calling notifyIterationEnds on org.matsim.analysis.LegHistogramListener with priority 0.0
2023-11-29T12:48:11,734  INFO LegHistogramListener:72 number of legs:	60	100%
2023-11-29T12:48:11,735  INFO LegHistogramListener:79 number of car legs:	60	100.0%
2023-11-29T12:48:11,867  INFO ControlerListenerManagerImpl:180 calling notifyIterationEnds on org.matsim.analysis.LinkStatsControlerListener with priority 0.0
2023-11-29T12:48:11,867  INFO ControlerListenerManagerImpl:180 calling notifyIterationEnds on org.matsim.contrib.common.timeprofile.ProfileWriter with priority 0.0
2023-11-29T12:48:12,335  INFO ControlerListenerManagerImpl:180 calling notifyIterationEnds on org.matsim.contrib.ev.stats.ChargingProceduresCSVWriter with priority 0.0
2023-11-29T12:48:12,338  INFO ControlerListenerManagerImpl:184 [it.0] all ControlerIterationEndsListeners called.
2023-11-29T12:48:12,410  INFO AbstractController:184 ### ITERATION 0 ENDS
2023-11-29T12:48:12,410  INFO AbstractController:185 ###################################################
2023-11-29T12:48:12,410  INFO MatsimRuntimeModifications:80 S H U T D O W N   ---   start shutdown.
2023-11-29T12:48:12,410  INFO ControlerListenerManagerImpl:128 calling notifyShutdown on org.matsim.core.controler.corelisteners.EventsHandlingImpl with priority 0.0
2023-11-29T12:48:12,410  INFO ControlerListenerManagerImpl:128 calling notifyShutdown on org.matsim.core.controler.corelisteners.DumpDataAtEndImpl with priority 0.0
2023-11-29T12:48:12,411  INFO Counter:70 [PopulationWriter] dumped person # 1
2023-11-29T12:48:12,412  INFO Counter:70 [PopulationWriter] dumped person # 2
2023-11-29T12:48:12,412  INFO Counter:70 [PopulationWriter] dumped person # 4
2023-11-29T12:48:12,412  INFO Counter:70 [PopulationWriter] dumped person # 8
2023-11-29T12:48:12,412  INFO Counter:70 [ParallelPopulationWriterV6] dumped person # 1
2023-11-29T12:48:12,413  INFO Counter:70 [ParallelPopulationWriterV6] dumped person # 2
2023-11-29T12:48:12,413  INFO Counter:70 [ParallelPopulationWriterV6] dumped person # 4
2023-11-29T12:48:12,414  INFO Counter:70 [ParallelPopulationWriterV6] dumped person # 8
2023-11-29T12:48:12,414  INFO Counter:75 [ParallelPopulationWriterV6] dumped person # 15
2023-11-29T12:48:12,414  INFO PopulationWriter:150 Population written to: ./output/evExample/output_plans.xml.gz
2023-11-29T12:48:12,415  INFO Counter:75 [PopulationWriter] dumped person # 15
2023-11-29T12:48:12,418  INFO NetworkWriter:70 Writing network to file: ./output/evExample/output_network.xml.gz...
2023-11-29T12:48:12,827  INFO NetworkWriter:73 done.
2023-11-29T12:48:12,832  INFO Config:550 setting context to [file:/C:/Users/Tobias%20Tietz/IdeaProjects/matsim-libs-HoLa/]
2023-11-29T12:48:12,833  INFO Config:550 setting context to [file:/C:/Users/Tobias%20Tietz/IdeaProjects/matsim-libs-HoLa/]
2023-11-29T12:48:12,835  INFO Config:550 setting context to [file:/C:/Users/Tobias%20Tietz/IdeaProjects/matsim-libs-HoLa/]
2023-11-29T12:48:12,836  INFO Config:550 setting context to [file:/C:/Users/Tobias%20Tietz/IdeaProjects/matsim-libs-HoLa/]
2023-11-29T12:48:12,837  INFO Config:550 setting context to [file:/C:/Users/Tobias%20Tietz/IdeaProjects/matsim-libs-HoLa/]
2023-11-29T12:48:12,839  INFO Config:550 setting context to [file:/C:/Users/Tobias%20Tietz/IdeaProjects/matsim-libs-HoLa/]
2023-11-29T12:48:12,840  INFO Config:550 setting context to [file:/C:/Users/Tobias%20Tietz/IdeaProjects/matsim-libs-HoLa/]
2023-11-29T12:48:12,841  INFO Config:550 setting context to [file:/C:/Users/Tobias%20Tietz/IdeaProjects/matsim-libs-HoLa/]
2023-11-29T12:48:12,841  INFO Config:550 setting context to [file:/C:/Users/Tobias%20Tietz/IdeaProjects/matsim-libs-HoLa/]
2023-11-29T12:48:12,842  INFO Config:550 setting context to [file:/C:/Users/Tobias%20Tietz/IdeaProjects/matsim-libs-HoLa/]
2023-11-29T12:48:12,843  INFO Config:550 setting context to [file:/C:/Users/Tobias%20Tietz/IdeaProjects/matsim-libs-HoLa/]
2023-11-29T12:48:12,844  INFO Config:550 setting context to [file:/C:/Users/Tobias%20Tietz/IdeaProjects/matsim-libs-HoLa/]
2023-11-29T12:48:12,845  INFO Config:550 setting context to [file:/C:/Users/Tobias%20Tietz/IdeaProjects/matsim-libs-HoLa/]
2023-11-29T12:48:12,846  INFO Config:550 setting context to [file:/C:/Users/Tobias%20Tietz/IdeaProjects/matsim-libs-HoLa/]
2023-11-29T12:48:12,847  INFO Config:550 setting context to [file:/C:/Users/Tobias%20Tietz/IdeaProjects/matsim-libs-HoLa/]
2023-11-29T12:48:12,849  INFO Config:550 setting context to [file:/C:/Users/Tobias%20Tietz/IdeaProjects/matsim-libs-HoLa/]
2023-11-29T12:48:12,850  INFO Config:550 setting context to [file:/C:/Users/Tobias%20Tietz/IdeaProjects/matsim-libs-HoLa/]
2023-11-29T12:48:12,851  INFO Config:550 setting context to [file:/C:/Users/Tobias%20Tietz/IdeaProjects/matsim-libs-HoLa/]
2023-11-29T12:48:12,851  INFO Config:550 setting context to [file:/C:/Users/Tobias%20Tietz/IdeaProjects/matsim-libs-HoLa/]
2023-11-29T12:48:12,852  INFO Config:550 setting context to [file:/C:/Users/Tobias%20Tietz/IdeaProjects/matsim-libs-HoLa/]
2023-11-29T12:48:12,853  INFO Config:550 setting context to [file:/C:/Users/Tobias%20Tietz/IdeaProjects/matsim-libs-HoLa/]
2023-11-29T12:48:12,858  INFO Config:550 setting context to [file:/C:/Users/Tobias%20Tietz/IdeaProjects/matsim-libs-HoLa/]
2023-11-29T12:48:12,859  INFO Config:550 setting context to [file:/C:/Users/Tobias%20Tietz/IdeaProjects/matsim-libs-HoLa/]
2023-11-29T12:48:12,860  INFO Config:550 setting context to [file:/C:/Users/Tobias%20Tietz/IdeaProjects/matsim-libs-HoLa/]
2023-11-29T12:48:12,861  INFO Config:550 setting context to [file:/C:/Users/Tobias%20Tietz/IdeaProjects/matsim-libs-HoLa/]
2023-11-29T12:48:12,862  INFO Config:550 setting context to [file:/C:/Users/Tobias%20Tietz/IdeaProjects/matsim-libs-HoLa/]
2023-11-29T12:48:12,862  INFO Config:550 setting context to [file:/C:/Users/Tobias%20Tietz/IdeaProjects/matsim-libs-HoLa/]
2023-11-29T12:48:12,863  INFO Config:550 setting context to [file:/C:/Users/Tobias%20Tietz/IdeaProjects/matsim-libs-HoLa/]
2023-11-29T12:48:12,868  INFO MatsimVehicleWriter:49 about to write vehicles to: ./output/evExample/output_vehicles.xml.gz
2023-11-29T12:48:12,869  INFO VehicleWriterV2:64 about to write vehicles to: ./output/evExample/output_vehicles.xml.gz
2023-11-29T12:48:12,873  INFO MatsimVehicleWriter:49 about to write vehicles to: ./output/evExample/output_allVehicles.xml.gz
2023-11-29T12:48:12,873  INFO VehicleWriterV2:64 about to write vehicles to: ./output/evExample/output_allVehicles.xml.gz
2023-11-29T12:48:12,876  INFO HouseholdsWriterV10:66 about to write  households to: ./output/evExample/output_households.xml.gz
2023-11-29T12:48:12,876  INFO Counter:75 [HouseholdsWriter] wrote household # 0
2023-11-29T12:48:12,878  INFO CountsWriterV2:45 Write Counts to ./output/evExample/output_counts.xml.gz
2023-11-29T12:48:12,889  INFO ControlerListenerManagerImpl:135 calling notifyShutdown on org.matsim.analysis.ScoreStatsControlerListener with priority 0.0
2023-11-29T12:48:12,889  INFO ControlerListenerManagerImpl:135 calling notifyShutdown on org.matsim.analysis.IterationTravelStatsControlerListener with priority 0.0
2023-11-29T12:48:12,889  INFO IterationTravelStatsControlerListener:115 Writing all Person and Attributes to personscsv
2023-11-29T12:48:12,890  INFO IterationTravelStatsControlerListener:159 ...done
2023-11-29T12:48:12,890  INFO ControlerListenerManagerImpl:135 calling notifyShutdown on org.matsim.analysis.LinkStatsControlerListener with priority 0.0
2023-11-29T12:48:13,294  INFO ControlerListenerManagerImpl:138 all ControlerShutdownListeners called.
2023-11-29T12:48:13,294  INFO MatsimRuntimeModifications:103 S H U T D O W N   ---   shutdown completed.
2023-11-29T12:48:13,294  INFO OutputDirectoryLogging:172 closing the logfile, i.e. messages sent to the logger after this message are not written to the logfile.
2023-11-29T12:48:13,301  INFO OutputDirectoryLogging:172 closing the logfile, i.e. messages sent to the logger after this message are not written to the logfile.
