2024-01-11T16:25:42,836  INFO IOUtils:224 Resolved input/ETruckTraffic/1.0pctETrucks_menter/config.xml to input\ETruckTraffic\1.0pctETrucks_menter\config.xml
################### MATSIM LIB 
2024-01-11T16:25:42,851  INFO Config:550 setting context to [file:/C:/Users/Tobias%20Tietz/IdeaProjects/matsim-libs-HoLa/]
2024-01-11T16:25:43,225  INFO Version:21 HV000001: Hibernate Validator 8.0.1.Final
2024-01-11T16:25:43,461  INFO MatsimXmlParser:170 starting to parse xml from url file:/C:/Users/Tobias%20Tietz/IdeaProjects/matsim-libs-HoLa/input/ETruckTraffic/1.0pctETrucks_menter/config.xml ...
2024-01-11T16:25:43,508  INFO ConfigReader:105 using config_v2-reader
2024-01-11T16:25:43,508  INFO MatsimXmlParser:296 Trying to load http://www.matsim.org/files/dtd/config_v2.dtd. In some cases (e.g. network interface up but no connection), this may take a bit.
2024-01-11T16:25:43,581  INFO GlobalConfigGroup:93 setting number of threads to: 6
2024-01-11T16:25:43,599  WARN ScoringConfigGroup:281 traveling is deprecated config syntax; please use the more modern hierarchical format; your output_config.xml will be in the correct version; the old version will fail eventually, since we want to reduce the workload on this backwards compatibility (look into PlanCalcScoreConfigGroup or PlanCalcRouteConfigGroup if you want to know what we mean).
2024-01-11T16:25:43,623  INFO Config:550 setting context to [file:/C:/Users/Tobias%20Tietz/IdeaProjects/matsim-libs-HoLa/input/ETruckTraffic/1.0pctETrucks_menter/config.xml]
2024-01-11T16:25:44,009  INFO ScenarioLoaderImpl:135 loading network from file:/C:/Users/Tobias%20Tietz/IdeaProjects/matsim-libs-HoLa/input/ETruckTraffic/german_etruck_network.xml.gz
2024-01-11T16:25:44,034  INFO MatsimXmlParser:170 starting to parse xml from url file:/C:/Users/Tobias%20Tietz/IdeaProjects/matsim-libs-HoLa/input/ETruckTraffic/german_etruck_network.xml.gz ...
2024-01-11T16:25:44,295  INFO MatsimNetworkReader:122 using network_v2-reader.
2024-01-11T16:25:44,296  INFO MatsimXmlParser:296 Trying to load http://www.matsim.org/files/dtd/network_v2.dtd. In some cases (e.g. network interface up but no connection), this may take a bit.
2024-01-11T16:25:44,350  INFO NetworkImpl:165  node # 1
2024-01-11T16:25:44,350  INFO NetworkImpl:165  node # 4
2024-01-11T16:25:44,351  INFO NetworkImpl:165  node # 16
2024-01-11T16:25:44,353  INFO NetworkImpl:165  node # 64
2024-01-11T16:25:44,364  INFO NetworkImpl:165  node # 256
2024-01-11T16:25:44,384  INFO NetworkImpl:165  node # 1024
2024-01-11T16:25:44,415  INFO NetworkImpl:165  node # 4096
2024-01-11T16:25:44,477  INFO NetworkImpl:165  node # 16384
2024-01-11T16:25:44,622  INFO NetworkImpl:165  node # 65536
2024-01-11T16:25:45,044  INFO NetworkImpl:165  node # 262144
2024-01-11T16:25:45,243  INFO NetworkImpl:161  link # 1
2024-01-11T16:25:45,244  INFO NetworkImpl:161  link # 4
2024-01-11T16:25:45,247  INFO NetworkImpl:161  link # 16
2024-01-11T16:25:45,254  INFO NetworkImpl:161  link # 64
2024-01-11T16:25:45,277  INFO NetworkImpl:161  link # 256
2024-01-11T16:25:45,298  WARN LinkImpl:119 permlanes=0.5 of link id 10026240260004f may cause problems
2024-01-11T16:25:45,299  WARN LinkImpl:121  Future occurences of this logging statement are suppressed.
2024-01-11T16:25:45,318  INFO NetworkImpl:161  link # 1024
2024-01-11T16:25:45,398  INFO NetworkImpl:161  link # 4096
2024-01-11T16:25:45,571  INFO NetworkImpl:161  link # 16384
2024-01-11T16:25:46,010  INFO NetworkImpl:161  link # 65536
2024-01-11T16:25:47,645  INFO NetworkImpl:161  link # 262144
2024-01-11T16:25:49,448  WARN LinkImpl:110 freespeed=0.0 of link id 711308610009f may cause problems
2024-01-11T16:25:49,448  WARN LinkImpl:112  Future occurences of this logging statement are suppressed.
2024-01-11T16:25:49,983  INFO ScenarioLoaderImpl:172 no facilities file set in config, therefore not loading any facilities.  This is not a problem except if you are using facilities
2024-01-11T16:25:49,983  INFO ScenarioLoaderImpl:188 no facility-attributes file set in config, not loading any facility attributes
2024-01-11T16:25:49,983  INFO ScenarioLoaderImpl:196 loading population from file:/C:/Users/Tobias%20Tietz/IdeaProjects/matsim-libs-HoLa/input/ETruckTraffic/1.0pctETrucks_menter/eTrucks_plans.xml.gz
2024-01-11T16:25:50,040  INFO MatsimXmlParser:170 starting to parse xml from url file:/C:/Users/Tobias%20Tietz/IdeaProjects/matsim-libs-HoLa/input/ETruckTraffic/1.0pctETrucks_menter/eTrucks_plans.xml.gz ...
2024-01-11T16:25:50,047  INFO PopulationReader:135 using population_v6-reader.
2024-01-11T16:25:50,047  INFO MatsimXmlParser:296 Trying to load http://www.matsim.org/files/dtd/population_v6.dtd. In some cases (e.g. network interface up but no connection), this may take a bit.
2024-01-11T16:25:50,090  INFO ParallelPopulationReaderMatsimV6:168 Start parallel population reading...
2024-01-11T16:25:50,115  INFO PopulationImpl:107  person # 1
2024-01-11T16:25:50,120  INFO PopulationImpl:107  person # 4
2024-01-11T16:25:50,122  INFO PopulationImpl:107  person # 16
2024-01-11T16:25:50,128  INFO PopulationImpl:107  person # 64
2024-01-11T16:25:50,145  INFO PopulationImpl:107  person # 256
2024-01-11T16:25:50,170  INFO PopulationImpl:107  person # 1024
2024-01-11T16:25:50,228  INFO PopulationImpl:107  person # 4096
2024-01-11T16:25:50,308  INFO ParallelPopulationReaderMatsimV6:238 Finished parallel population reading...
2024-01-11T16:25:50,309  INFO PopulationUtils:1115  person # 9949
2024-01-11T16:25:50,309  INFO ScenarioLoaderImpl:244 no person-attributes file set in config, not loading any person attributes
2024-01-11T16:25:50,309  INFO ScenarioLoaderImpl:258 no households file set in config, not loading households
2024-01-11T16:25:50,309  INFO ScenarioLoaderImpl:292 no transit schedule file set in config, not loading any transit schedule
2024-01-11T16:25:50,309  INFO ScenarioLoaderImpl:333 no transit vehicles file set in config, not loading any transit vehicles
2024-01-11T16:25:50,309  INFO ScenarioLoaderImpl:339 loading vehicles from eTrucks_Vehicle.xml.gz
2024-01-11T16:25:50,334  INFO MatsimXmlParser:170 starting to parse xml from url file:/C:/Users/Tobias%20Tietz/IdeaProjects/matsim-libs-HoLa/input/ETruckTraffic/1.0pctETrucks_menter/eTrucks_Vehicle.xml.gz ...
2024-01-11T16:25:50,431  INFO MatsimXmlParser:296 Trying to load http://www.matsim.org/files/dtd/vehicleDefinitions_v2.0.xsd. In some cases (e.g. network interface up but no connection), this may take a bit.
2024-01-11T16:25:50,482  INFO MatsimXmlParser:296 Trying to load http://www.matsim.org/files/dtd/matsimCommon.xsd. In some cases (e.g. network interface up but no connection), this may take a bit.
2024-01-11T16:25:50,524  INFO MatsimXmlParser:296 Trying to load http://www.matsim.org/files/dtd/vehicleDefinitionsEnumTypes.xsd. In some cases (e.g. network interface up but no connection), this may take a bit.
2024-01-11T16:25:50,571  INFO MatsimVehicleReader$VehicleReader:77 Found following schemaLocation in vehicle definition file: http://www.matsim.org/files/dtd http://www.matsim.org/files/dtd/vehicleDefinitions_v2.0.xsd
2024-01-11T16:25:50,572  INFO VehicleReaderV2:24 Using org.matsim.vehicles.VehicleReaderV2
2024-01-11T16:25:50,603  INFO Counter:70 [VehiclesImpl] added vehicle # 1
2024-01-11T16:25:50,604  INFO Counter:70 [VehiclesImpl] added vehicle # 2
2024-01-11T16:25:50,604  INFO Counter:70 [VehiclesImpl] added vehicle # 4
2024-01-11T16:25:50,605  INFO Counter:70 [VehiclesImpl] added vehicle # 8
2024-01-11T16:25:50,606  INFO Counter:70 [VehiclesImpl] added vehicle # 16
2024-01-11T16:25:50,609  INFO Counter:70 [VehiclesImpl] added vehicle # 32
2024-01-11T16:25:50,615  INFO Counter:70 [VehiclesImpl] added vehicle # 64
2024-01-11T16:25:50,624  INFO Counter:70 [VehiclesImpl] added vehicle # 128
2024-01-11T16:25:50,638  INFO Counter:70 [VehiclesImpl] added vehicle # 256
2024-01-11T16:25:50,654  INFO Counter:70 [VehiclesImpl] added vehicle # 512
2024-01-11T16:25:50,676  INFO Counter:70 [VehiclesImpl] added vehicle # 1024
2024-01-11T16:25:50,706  INFO Counter:70 [VehiclesImpl] added vehicle # 2048
2024-01-11T16:25:50,751  INFO Counter:70 [VehiclesImpl] added vehicle # 4096
2024-01-11T16:25:50,803  INFO Counter:70 [VehiclesImpl] added vehicle # 8192
2024-01-11T16:25:50,950  INFO ScoringConfigGroup$ScoringParameterSet:1555 NO OPENING OR CLOSING TIMES DEFINED!

There is no activity type that has an opening *and* closing time (or opening time and late penalty) defined.
This usually means that the activity chains can be shifted by an arbitrary
number of hours without having an effect on the score of the plans, and thus
resulting in wrong results / traffic patterns.
If you are using MATSim without time adaptation, you can ignore this warning.


2024-01-11T16:25:50,957  INFO VspConfigConsistencyCheckerImpl:68 NOT running vsp config consistency check because vsp defaults checking level is set to IGNORE
2024-01-11T16:25:53,113  INFO SimStepParallelEventsManagerImpl:80 number of threads=1
2024-01-11T16:25:53,133  INFO MatsimXmlParser:170 starting to parse xml from url file:/C:/Users/Tobias%20Tietz/IdeaProjects/matsim-libs-HoLa/input/ETruckTraffic/1.0pctETrucks_menter/eTrucks_Chargers_85Percentile.xml ...
2024-01-11T16:25:53,134  INFO MatsimXmlParser:296 Trying to load http://matsim.org/files/dtd/chargers_v1.dtd. In some cases (e.g. network interface up but no connection), this may take a bit.
2024-01-11T16:25:53,260  INFO EventsManagerImpl:138 adding Event-Handler: org.matsim.core.trafficmonitoring.TravelTimeCalculator
2024-01-11T16:25:53,260  INFO EventsManagerImpl:144   org.matsim.api.core.v01.events.handler.LinkEnterEventHandler
2024-01-11T16:25:53,261  INFO EventsManagerImpl:205     > org.matsim.api.core.v01.events.LinkEnterEvent
2024-01-11T16:25:53,263  INFO EventsManagerImpl:144   org.matsim.api.core.v01.events.handler.LinkLeaveEventHandler
2024-01-11T16:25:53,263  INFO EventsManagerImpl:205     > org.matsim.api.core.v01.events.LinkLeaveEvent
2024-01-11T16:25:53,263  INFO EventsManagerImpl:144   org.matsim.api.core.v01.events.handler.VehicleEntersTrafficEventHandler
2024-01-11T16:25:53,263  INFO EventsManagerImpl:205     > org.matsim.api.core.v01.events.VehicleEntersTrafficEvent
2024-01-11T16:25:53,264  INFO EventsManagerImpl:144   org.matsim.api.core.v01.events.handler.VehicleLeavesTrafficEventHandler
2024-01-11T16:25:53,264  INFO EventsManagerImpl:205     > org.matsim.api.core.v01.events.VehicleLeavesTrafficEvent
2024-01-11T16:25:53,264  INFO EventsManagerImpl:144   org.matsim.core.api.experimental.events.handler.VehicleArrivesAtFacilityEventHandler
2024-01-11T16:25:53,264  INFO EventsManagerImpl:205     > org.matsim.core.api.experimental.events.VehicleArrivesAtFacilityEvent
2024-01-11T16:25:53,264  INFO EventsManagerImpl:144   org.matsim.api.core.v01.events.handler.VehicleAbortsEventHandler
2024-01-11T16:25:53,270  INFO EventsManagerImpl:205     > org.matsim.api.core.v01.events.VehicleAbortsEvent
2024-01-11T16:25:53,270  INFO EventsManagerImpl:154 
2024-01-11T16:25:53,270  INFO EventsManagerImpl:138 adding Event-Handler: org.matsim.core.trafficmonitoring.TravelTimeCalculator
2024-01-11T16:25:53,270  INFO EventsManagerImpl:144   org.matsim.api.core.v01.events.handler.LinkEnterEventHandler
2024-01-11T16:25:53,270  INFO EventsManagerImpl:205     > org.matsim.api.core.v01.events.LinkEnterEvent
2024-01-11T16:25:53,270  INFO EventsManagerImpl:144   org.matsim.api.core.v01.events.handler.LinkLeaveEventHandler
2024-01-11T16:25:53,271  INFO EventsManagerImpl:205     > org.matsim.api.core.v01.events.LinkLeaveEvent
2024-01-11T16:25:53,271  INFO EventsManagerImpl:144   org.matsim.api.core.v01.events.handler.VehicleEntersTrafficEventHandler
2024-01-11T16:25:53,271  INFO EventsManagerImpl:205     > org.matsim.api.core.v01.events.VehicleEntersTrafficEvent
2024-01-11T16:25:53,271  INFO EventsManagerImpl:144   org.matsim.api.core.v01.events.handler.VehicleLeavesTrafficEventHandler
2024-01-11T16:25:53,271  INFO EventsManagerImpl:205     > org.matsim.api.core.v01.events.VehicleLeavesTrafficEvent
2024-01-11T16:25:53,271  INFO EventsManagerImpl:144   org.matsim.core.api.experimental.events.handler.VehicleArrivesAtFacilityEventHandler
2024-01-11T16:25:53,271  INFO EventsManagerImpl:205     > org.matsim.core.api.experimental.events.VehicleArrivesAtFacilityEvent
2024-01-11T16:25:53,271  INFO EventsManagerImpl:144   org.matsim.api.core.v01.events.handler.VehicleAbortsEventHandler
2024-01-11T16:25:53,271  INFO EventsManagerImpl:205     > org.matsim.api.core.v01.events.VehicleAbortsEvent
2024-01-11T16:25:53,271  INFO EventsManagerImpl:154 
2024-01-11T16:25:53,281  INFO OutputDirectoryHierarchy:278 ###########################################################
2024-01-11T16:25:53,281  INFO OutputDirectoryHierarchy:279 ### THE CONTROLER WILL DELETE THE EXISTING OUTPUT DIRECTORY:
2024-01-11T16:25:53,282  INFO OutputDirectoryHierarchy:280 ### ./output/ETruckTraffic/1.0pctETrucks/eTrucks_Chargers_75quantil_720kW.xml
2024-01-11T16:25:53,282  WARN OutputDirectoryHierarchy:281 ### full path: C:\Users\Tobias Tietz\IdeaProjects\matsim-libs-HoLa\.\output\ETruckTraffic\1.0pctETrucks\eTrucks_Chargers_75quantil_720kW.xml
2024-01-11T16:25:53,282  INFO OutputDirectoryHierarchy:282 ###########################################################
2024-01-11T16:25:53,326  INFO StrategyManager:77 global innovation switch off after iteration: 2147483647
2024-01-11T16:25:53,342  INFO GenericStrategyManagerImpl:330 added change request:  iteration=-2147483648 newWeight=0.0 strategy=RandomPlanSelector_ReRoute
2024-01-11T16:25:53,342  INFO GenericStrategyManagerImpl:362 setting PlanSelectorForRemoval to class org.matsim.core.replanning.selectors.WorstPlanForRemovalSelector
2024-01-11T16:25:53,343  WARN ConflictModule:47 The replanning.planSelectorForRemoval is not set to WorstPlanForRemovalSelectorWithConflicts. This will likely cause problems with the conflict logic if you are not sure what you are doing.
2024-01-11T16:25:53,363  INFO EventsManagerImpl:138 adding Event-Handler: org.matsim.core.scoring.ScoringFunctionsForPopulation
2024-01-11T16:25:53,363  INFO EventsManagerImpl:144   org.matsim.core.events.handler.BasicEventHandler
2024-01-11T16:25:53,363  INFO EventsManagerImpl:205     > org.matsim.api.core.v01.events.Event
2024-01-11T16:25:53,363  INFO EventsManagerImpl:154 
2024-01-11T16:25:53,363  INFO EventsManagerImpl:138 adding Event-Handler: org.matsim.core.scoring.ScoringFunctionsForPopulation
2024-01-11T16:25:53,363  INFO EventsManagerImpl:144   org.matsim.core.events.handler.BasicEventHandler
2024-01-11T16:25:53,363  INFO EventsManagerImpl:205     > org.matsim.api.core.v01.events.Event
2024-01-11T16:25:53,364  INFO EventsManagerImpl:154 
2024-01-11T16:25:53,378  INFO CalcLinkStats:151  resetting `count' to zero.  This info is here since we want to check when this is happening during normal simulation runs.  kai, jan'11
2024-01-11T16:25:53,690  INFO EventsManagerImpl:138 adding Event-Handler: org.matsim.analysis.VolumesAnalyzer
2024-01-11T16:25:53,690  INFO EventsManagerImpl:144   org.matsim.api.core.v01.events.handler.LinkLeaveEventHandler
2024-01-11T16:25:53,690  INFO EventsManagerImpl:205     > org.matsim.api.core.v01.events.LinkLeaveEvent
2024-01-11T16:25:53,690  INFO EventsManagerImpl:144   org.matsim.api.core.v01.events.handler.VehicleEntersTrafficEventHandler
2024-01-11T16:25:53,690  INFO EventsManagerImpl:205     > org.matsim.api.core.v01.events.VehicleEntersTrafficEvent
2024-01-11T16:25:53,690  INFO EventsManagerImpl:154 
2024-01-11T16:25:53,690  INFO EventsManagerImpl:138 adding Event-Handler: org.matsim.analysis.VolumesAnalyzer
2024-01-11T16:25:53,690  INFO EventsManagerImpl:144   org.matsim.api.core.v01.events.handler.LinkLeaveEventHandler
2024-01-11T16:25:53,690  INFO EventsManagerImpl:205     > org.matsim.api.core.v01.events.LinkLeaveEvent
2024-01-11T16:25:53,691  INFO EventsManagerImpl:144   org.matsim.api.core.v01.events.handler.VehicleEntersTrafficEventHandler
2024-01-11T16:25:53,691  INFO EventsManagerImpl:205     > org.matsim.api.core.v01.events.VehicleEntersTrafficEvent
2024-01-11T16:25:53,691  INFO EventsManagerImpl:154 
2024-01-11T16:25:53,692  INFO EventsManagerImpl:138 adding Event-Handler: org.matsim.analysis.LegHistogram
2024-01-11T16:25:53,692  INFO EventsManagerImpl:144   org.matsim.api.core.v01.events.handler.PersonDepartureEventHandler
2024-01-11T16:25:53,692  INFO EventsManagerImpl:205     > org.matsim.api.core.v01.events.PersonDepartureEvent
2024-01-11T16:25:53,692  INFO EventsManagerImpl:144   org.matsim.api.core.v01.events.handler.PersonArrivalEventHandler
2024-01-11T16:25:53,692  INFO EventsManagerImpl:205     > org.matsim.api.core.v01.events.PersonArrivalEvent
2024-01-11T16:25:53,692  INFO EventsManagerImpl:144   org.matsim.api.core.v01.events.handler.PersonStuckEventHandler
2024-01-11T16:25:53,692  INFO EventsManagerImpl:205     > org.matsim.api.core.v01.events.PersonStuckEvent
2024-01-11T16:25:53,692  INFO EventsManagerImpl:154 
2024-01-11T16:25:53,692  INFO EventsManagerImpl:138 adding Event-Handler: org.matsim.analysis.LegHistogram
2024-01-11T16:25:53,693  INFO EventsManagerImpl:144   org.matsim.api.core.v01.events.handler.PersonDepartureEventHandler
2024-01-11T16:25:53,693  INFO EventsManagerImpl:205     > org.matsim.api.core.v01.events.PersonDepartureEvent
2024-01-11T16:25:53,693  INFO EventsManagerImpl:144   org.matsim.api.core.v01.events.handler.PersonArrivalEventHandler
2024-01-11T16:25:53,693  INFO EventsManagerImpl:205     > org.matsim.api.core.v01.events.PersonArrivalEvent
2024-01-11T16:25:53,693  INFO EventsManagerImpl:144   org.matsim.api.core.v01.events.handler.PersonStuckEventHandler
2024-01-11T16:25:53,693  INFO EventsManagerImpl:205     > org.matsim.api.core.v01.events.PersonStuckEvent
2024-01-11T16:25:53,693  INFO EventsManagerImpl:154 
2024-01-11T16:25:53,693  INFO EventsManagerImpl:138 adding Event-Handler: org.matsim.analysis.CalcLegTimes
2024-01-11T16:25:53,693  INFO EventsManagerImpl:144   org.matsim.api.core.v01.events.handler.PersonDepartureEventHandler
2024-01-11T16:25:53,694  INFO EventsManagerImpl:205     > org.matsim.api.core.v01.events.PersonDepartureEvent
2024-01-11T16:25:53,694  INFO EventsManagerImpl:144   org.matsim.api.core.v01.events.handler.PersonArrivalEventHandler
2024-01-11T16:25:53,694  INFO EventsManagerImpl:205     > org.matsim.api.core.v01.events.PersonArrivalEvent
2024-01-11T16:25:53,694  INFO EventsManagerImpl:144   org.matsim.api.core.v01.events.handler.ActivityEndEventHandler
2024-01-11T16:25:53,694  INFO EventsManagerImpl:205     > org.matsim.api.core.v01.events.ActivityEndEvent
2024-01-11T16:25:53,694  INFO EventsManagerImpl:144   org.matsim.api.core.v01.events.handler.ActivityStartEventHandler
2024-01-11T16:25:53,694  INFO EventsManagerImpl:205     > org.matsim.api.core.v01.events.ActivityStartEvent
2024-01-11T16:25:53,694  INFO EventsManagerImpl:154 
2024-01-11T16:25:53,694  INFO EventsManagerImpl:138 adding Event-Handler: org.matsim.analysis.CalcLegTimes
2024-01-11T16:25:53,694  INFO EventsManagerImpl:144   org.matsim.api.core.v01.events.handler.PersonDepartureEventHandler
2024-01-11T16:25:53,694  INFO EventsManagerImpl:205     > org.matsim.api.core.v01.events.PersonDepartureEvent
2024-01-11T16:25:53,694  INFO EventsManagerImpl:144   org.matsim.api.core.v01.events.handler.PersonArrivalEventHandler
2024-01-11T16:25:53,694  INFO EventsManagerImpl:205     > org.matsim.api.core.v01.events.PersonArrivalEvent
2024-01-11T16:25:53,695  INFO EventsManagerImpl:144   org.matsim.api.core.v01.events.handler.ActivityEndEventHandler
2024-01-11T16:25:53,695  INFO EventsManagerImpl:205     > org.matsim.api.core.v01.events.ActivityEndEvent
2024-01-11T16:25:53,695  INFO EventsManagerImpl:144   org.matsim.api.core.v01.events.handler.ActivityStartEventHandler
2024-01-11T16:25:53,695  INFO EventsManagerImpl:205     > org.matsim.api.core.v01.events.ActivityStartEvent
2024-01-11T16:25:53,695  INFO EventsManagerImpl:154 
2024-01-11T16:25:53,712  INFO AbstractController:57 Used Controler-Class: org.matsim.core.controler.NewControler
2024-01-11T16:25:53,712  INFO Config:510 ConfigConsistencyChecker with runtime type=class org.matsim.core.config.consistency.ConfigConsistencyCheckerImpl was already added; not adding it a second time
2024-01-11T16:25:53,713  INFO EventsManagerImpl:138 adding Event-Handler: org.matsim.contrib.ev.charging.ChargingEventSequenceCollector
2024-01-11T16:25:53,713  INFO EventsManagerImpl:144   org.matsim.contrib.ev.charging.QueuedAtChargerEventHandler
2024-01-11T16:25:53,713  INFO EventsManagerImpl:205     > org.matsim.contrib.ev.charging.QueuedAtChargerEvent
2024-01-11T16:25:53,714  INFO EventsManagerImpl:144   org.matsim.contrib.ev.charging.QuitQueueAtChargerEventHandler
2024-01-11T16:25:53,714  INFO EventsManagerImpl:205     > org.matsim.contrib.ev.charging.QuitQueueAtChargerEvent
2024-01-11T16:25:53,714  INFO EventsManagerImpl:144   org.matsim.contrib.ev.charging.ChargingStartEventHandler
2024-01-11T16:25:53,714  INFO EventsManagerImpl:205     > org.matsim.contrib.ev.charging.ChargingStartEvent
2024-01-11T16:25:53,714  INFO EventsManagerImpl:144   org.matsim.contrib.ev.charging.ChargingEndEventHandler
2024-01-11T16:25:53,714  INFO EventsManagerImpl:205     > org.matsim.contrib.ev.charging.ChargingEndEvent
2024-01-11T16:25:53,714  INFO EventsManagerImpl:154 
2024-01-11T16:25:53,714  INFO EventsManagerImpl:138 adding Event-Handler: org.matsim.contrib.ev.charging.ChargingEventSequenceCollector
2024-01-11T16:25:53,714  INFO EventsManagerImpl:144   org.matsim.contrib.ev.charging.QueuedAtChargerEventHandler
2024-01-11T16:25:53,714  INFO EventsManagerImpl:205     > org.matsim.contrib.ev.charging.QueuedAtChargerEvent
2024-01-11T16:25:53,714  INFO EventsManagerImpl:144   org.matsim.contrib.ev.charging.QuitQueueAtChargerEventHandler
2024-01-11T16:25:53,714  INFO EventsManagerImpl:205     > org.matsim.contrib.ev.charging.QuitQueueAtChargerEvent
2024-01-11T16:25:53,714  INFO EventsManagerImpl:144   org.matsim.contrib.ev.charging.ChargingStartEventHandler
2024-01-11T16:25:53,715  INFO EventsManagerImpl:205     > org.matsim.contrib.ev.charging.ChargingStartEvent
2024-01-11T16:25:53,715  INFO EventsManagerImpl:144   org.matsim.contrib.ev.charging.ChargingEndEventHandler
2024-01-11T16:25:53,715  INFO EventsManagerImpl:205     > org.matsim.contrib.ev.charging.ChargingEndEvent
2024-01-11T16:25:53,715  INFO EventsManagerImpl:154 
2024-01-11T16:25:53,715  INFO EventsManagerImpl:138 adding Event-Handler: org.matsim.contrib.ev.stats.ChargerPowerTimeProfileCalculator
2024-01-11T16:25:53,715  INFO EventsManagerImpl:144   org.matsim.contrib.ev.charging.ChargingStartEventHandler
2024-01-11T16:25:53,715  INFO EventsManagerImpl:205     > org.matsim.contrib.ev.charging.ChargingStartEvent
2024-01-11T16:25:53,715  INFO EventsManagerImpl:144   org.matsim.contrib.ev.charging.ChargingEndEventHandler
2024-01-11T16:25:53,715  INFO EventsManagerImpl:205     > org.matsim.contrib.ev.charging.ChargingEndEvent
2024-01-11T16:25:53,715  INFO EventsManagerImpl:154 
2024-01-11T16:25:53,715  INFO EventsManagerImpl:138 adding Event-Handler: org.matsim.contrib.ev.stats.ChargerPowerTimeProfileCalculator
2024-01-11T16:25:53,715  INFO EventsManagerImpl:144   org.matsim.contrib.ev.charging.ChargingStartEventHandler
2024-01-11T16:25:53,715  INFO EventsManagerImpl:205     > org.matsim.contrib.ev.charging.ChargingStartEvent
2024-01-11T16:25:53,716  INFO EventsManagerImpl:144   org.matsim.contrib.ev.charging.ChargingEndEventHandler
2024-01-11T16:25:53,716  INFO EventsManagerImpl:205     > org.matsim.contrib.ev.charging.ChargingEndEvent
2024-01-11T16:25:53,716  INFO EventsManagerImpl:154 
2024-01-11T16:25:53,716  INFO Injector:81 === printInjector start ===
2024-01-11T16:25:53,716  INFO Injector:85 org.matsim.contrib.ev.fleet.ElectricFleetSpecification 
2024-01-11T16:25:53,717  INFO Injector:86   --> provider: org.matsim.contrib.ev.fleet.ElectricFleetModule$1@19f7222e[Scopes.SINGLETON]
2024-01-11T16:25:53,717  INFO Injector:87   --> source: org.matsim.contrib.ev.fleet.ElectricFleetModule.install(ElectricFleetModule.java:46)
2024-01-11T16:25:53,717  INFO Injector:89   --> scope: eager singleton
2024-01-11T16:25:53,718  INFO Injector:94   ==full==> ProviderInstanceBinding{key=Key[type=org.matsim.contrib.ev.fleet.ElectricFleetSpecification, annotation=[none]], source=org.matsim.contrib.ev.fleet.ElectricFleetModule.install(ElectricFleetModule.java:46), scope=eager singleton, provider=org.matsim.contrib.ev.fleet.ElectricFleetModule$1@19f7222e}
2024-01-11T16:25:53,718  INFO Injector:96 
2024-01-11T16:25:53,719  INFO Injector:85 org.matsim.core.mobsim.qsim.AbstractQSimModule @com.google.inject.internal.Element(setName=,uniqueId=128, type=MULTIBINDER, keyType=)
2024-01-11T16:25:53,719  INFO Injector:86   --> provider: ConstantFactory{value=org.matsim.contrib.ev.fleet.ElectricFleetModule$2@3c5dbdf8}[Scopes.SINGLETON]
2024-01-11T16:25:53,719  INFO Injector:87   --> source: org.matsim.contrib.ev.fleet.ElectricFleetModule.install(ElectricFleetModule.java:56)
2024-01-11T16:25:53,719  INFO Injector:89   --> scope: eager singleton
2024-01-11T16:25:53,719  INFO Injector:94   ==full==> InstanceBinding{key=Key[type=org.matsim.core.mobsim.qsim.AbstractQSimModule, annotation=@com.google.inject.internal.Element(setName=,uniqueId=128, type=MULTIBINDER, keyType=)], source=org.matsim.contrib.ev.fleet.ElectricFleetModule.install(ElectricFleetModule.java:56), instance=org.matsim.contrib.ev.fleet.ElectricFleetModule$2@3c5dbdf8}
2024-01-11T16:25:53,719  INFO Injector:96 
2024-01-11T16:25:53,719  INFO Injector:85 org.matsim.api.core.v01.network.Network @com.google.inject.name.Named("chargers")
2024-01-11T16:25:53,727  INFO Injector:86   --> provider: FactoryProxy{key=Key[type=org.matsim.api.core.v01.network.Network, annotation=@com.google.inject.name.Named("chargers")], provider=@Provides org.matsim.core.scenario.ScenarioByInstanceModule.provideNetwork(ScenarioByInstanceModule.java:60)}[Scopes.SINGLETON]
2024-01-11T16:25:53,727  INFO Injector:87   --> source: org.matsim.contrib.ev.infrastructure.ChargingInfrastructureModule.install(ChargingInfrastructureModule.java:56)
2024-01-11T16:25:53,727  INFO Injector:89   --> scope: eager singleton
2024-01-11T16:25:53,727  INFO Injector:92   --> target: Key[type=org.matsim.api.core.v01.network.Network, annotation=[none]]
2024-01-11T16:25:53,727  INFO Injector:94   ==full==> LinkedKeyBinding{key=Key[type=org.matsim.api.core.v01.network.Network, annotation=@com.google.inject.name.Named("chargers")], source=org.matsim.contrib.ev.infrastructure.ChargingInfrastructureModule.install(ChargingInfrastructureModule.java:56), scope=eager singleton, target=Key[type=org.matsim.api.core.v01.network.Network, annotation=[none]]}
2024-01-11T16:25:53,727  INFO Injector:96 
2024-01-11T16:25:53,728  INFO Injector:85 org.matsim.contrib.ev.infrastructure.ChargingInfrastructureSpecification 
2024-01-11T16:25:53,728  INFO Injector:86   --> provider: org.matsim.contrib.ev.infrastructure.ChargingInfrastructureModule$$Lambda$275/0x000000080137b858@268cbb86[Scopes.SINGLETON]
2024-01-11T16:25:53,728  INFO Injector:87   --> source: org.matsim.contrib.ev.infrastructure.ChargingInfrastructureModule.install(ChargingInfrastructureModule.java:58)
2024-01-11T16:25:53,728  INFO Injector:89   --> scope: eager singleton
2024-01-11T16:25:53,728  INFO Injector:94   ==full==> ProviderInstanceBinding{key=Key[type=org.matsim.contrib.ev.infrastructure.ChargingInfrastructureSpecification, annotation=[none]], source=org.matsim.contrib.ev.infrastructure.ChargingInfrastructureModule.install(ChargingInfrastructureModule.java:58), scope=eager singleton, provider=org.matsim.contrib.ev.infrastructure.ChargingInfrastructureModule$$Lambda$275/0x000000080137b858@268cbb86}
2024-01-11T16:25:53,728  INFO Injector:96 
2024-01-11T16:25:53,728  INFO Injector:85 org.matsim.core.mobsim.qsim.AbstractQSimModule @com.google.inject.internal.Element(setName=,uniqueId=129, type=MULTIBINDER, keyType=)
2024-01-11T16:25:53,728  INFO Injector:86   --> provider: ConstantFactory{value=org.matsim.contrib.ev.infrastructure.ChargingInfrastructureModule$1@352c44a8}[Scopes.SINGLETON]
2024-01-11T16:25:53,728  INFO Injector:87   --> source: org.matsim.contrib.ev.infrastructure.ChargingInfrastructureModule.install(ChargingInfrastructureModule.java:65)
2024-01-11T16:25:53,728  INFO Injector:89   --> scope: eager singleton
2024-01-11T16:25:53,728  INFO Injector:94   ==full==> InstanceBinding{key=Key[type=org.matsim.core.mobsim.qsim.AbstractQSimModule, annotation=@com.google.inject.internal.Element(setName=,uniqueId=129, type=MULTIBINDER, keyType=)], source=org.matsim.contrib.ev.infrastructure.ChargingInfrastructureModule.install(ChargingInfrastructureModule.java:65), instance=org.matsim.contrib.ev.infrastructure.ChargingInfrastructureModule$1@352c44a8}
2024-01-11T16:25:53,728  INFO Injector:96 
2024-01-11T16:25:53,728  INFO Injector:85 org.matsim.contrib.ev.charging.ChargingLogic$Factory 
2024-01-11T16:25:53,729  INFO Injector:86   --> provider: org.matsim.contrib.ev.charging.ChargingModule$1@17d32e9b
2024-01-11T16:25:53,729  INFO Injector:87   --> source: org.matsim.contrib.ev.charging.ChargingModule.install(ChargingModule.java:39)
2024-01-11T16:25:53,729  INFO Injector:89   --> scope: Scopes.NO_SCOPE
2024-01-11T16:25:53,729  INFO Injector:94   ==full==> ProviderInstanceBinding{key=Key[type=org.matsim.contrib.ev.charging.ChargingLogic$Factory, annotation=[none]], source=org.matsim.contrib.ev.charging.ChargingModule.install(ChargingModule.java:39), scope=Scopes.NO_SCOPE, provider=org.matsim.contrib.ev.charging.ChargingModule$1@17d32e9b}
2024-01-11T16:25:53,729  INFO Injector:96 
2024-01-11T16:25:53,729  INFO Injector:85 org.matsim.contrib.ev.charging.ChargingPower$Factory 
2024-01-11T16:25:53,729  INFO Injector:86   --> provider: ConstantFactory{value=org.matsim.contrib.ev.charging.ChargingModule$$Lambda$276/0x000000080137cfb0@10f7918f}[Scopes.SINGLETON]
2024-01-11T16:25:53,729  INFO Injector:87   --> source: org.matsim.contrib.ev.charging.ChargingModule.install(ChargingModule.java:47)
2024-01-11T16:25:53,729  INFO Injector:89   --> scope: eager singleton
2024-01-11T16:25:53,729  INFO Injector:94   ==full==> InstanceBinding{key=Key[type=org.matsim.contrib.ev.charging.ChargingPower$Factory, annotation=[none]], source=org.matsim.contrib.ev.charging.ChargingModule.install(ChargingModule.java:47), instance=org.matsim.contrib.ev.charging.ChargingModule$$Lambda$276/0x000000080137cfb0@10f7918f}
2024-01-11T16:25:53,729  INFO Injector:96 
2024-01-11T16:25:53,730  INFO Injector:85 org.matsim.core.mobsim.qsim.AbstractQSimModule @com.google.inject.internal.Element(setName=,uniqueId=130, type=MULTIBINDER, keyType=)
2024-01-11T16:25:53,730  INFO Injector:86   --> provider: ConstantFactory{value=org.matsim.contrib.ev.charging.ChargingModule$2@7aac8884}[Scopes.SINGLETON]
2024-01-11T16:25:53,730  INFO Injector:87   --> source: org.matsim.contrib.ev.charging.ChargingModule.install(ChargingModule.java:49)
2024-01-11T16:25:53,730  INFO Injector:89   --> scope: eager singleton
2024-01-11T16:25:53,730  INFO Injector:94   ==full==> InstanceBinding{key=Key[type=org.matsim.core.mobsim.qsim.AbstractQSimModule, annotation=@com.google.inject.internal.Element(setName=,uniqueId=130, type=MULTIBINDER, keyType=)], source=org.matsim.contrib.ev.charging.ChargingModule.install(ChargingModule.java:49), instance=org.matsim.contrib.ev.charging.ChargingModule$2@7aac8884}
2024-01-11T16:25:53,730  INFO Injector:96 
2024-01-11T16:25:53,730  INFO Injector:85 org.matsim.contrib.ev.discharging.DriveEnergyConsumption$Factory 
2024-01-11T16:25:53,730  INFO Injector:86   --> provider: ConstantFactory{value=org.matsim.contrib.ev.discharging.DischargingModule$$Lambda$277/0x000000080137daf8@64d4f7c7}[Scopes.SINGLETON]
2024-01-11T16:25:53,730  INFO Injector:87   --> source: org.matsim.contrib.ev.discharging.DischargingModule.install(DischargingModule.java:36)
2024-01-11T16:25:53,730  INFO Injector:89   --> scope: eager singleton
2024-01-11T16:25:53,730  INFO Injector:94   ==full==> InstanceBinding{key=Key[type=org.matsim.contrib.ev.discharging.DriveEnergyConsumption$Factory, annotation=[none]], source=org.matsim.contrib.ev.discharging.DischargingModule.install(DischargingModule.java:36), instance=org.matsim.contrib.ev.discharging.DischargingModule$$Lambda$277/0x000000080137daf8@64d4f7c7}
2024-01-11T16:25:53,730  INFO Injector:96 
2024-01-11T16:25:53,730  INFO Injector:85 org.matsim.contrib.ev.temperature.TemperatureService 
2024-01-11T16:25:53,731  INFO Injector:86   --> provider: ConstantFactory{value=org.matsim.contrib.ev.discharging.DischargingModule$$Lambda$278/0x000000080137def8@54e02f6a}[Scopes.SINGLETON]
2024-01-11T16:25:53,731  INFO Injector:87   --> source: org.matsim.contrib.ev.discharging.DischargingModule.install(DischargingModule.java:37)
2024-01-11T16:25:53,731  INFO Injector:89   --> scope: eager singleton
2024-01-11T16:25:53,731  INFO Injector:94   ==full==> InstanceBinding{key=Key[type=org.matsim.contrib.ev.temperature.TemperatureService, annotation=[none]], source=org.matsim.contrib.ev.discharging.DischargingModule.install(DischargingModule.java:37), instance=org.matsim.contrib.ev.discharging.DischargingModule$$Lambda$278/0x000000080137def8@54e02f6a}
2024-01-11T16:25:53,731  INFO Injector:96 
2024-01-11T16:25:53,731  INFO Injector:85 org.matsim.contrib.ev.discharging.AuxEnergyConsumption$Factory 
2024-01-11T16:25:53,731  INFO Injector:86   --> provider: FactoryProxy{key=Key[type=org.matsim.contrib.ev.discharging.AuxEnergyConsumption$Factory, annotation=[none]], provider=com.google.inject.internal.ConstructorBindingImpl$Factory@17f3eefb}[Scopes.SINGLETON]
2024-01-11T16:25:53,731  INFO Injector:87   --> source: org.matsim.contrib.ev.discharging.DischargingModule.install(DischargingModule.java:38)
2024-01-11T16:25:53,731  INFO Injector:89   --> scope: Scopes.SINGLETON
2024-01-11T16:25:53,731  INFO Injector:92   --> target: Key[type=org.matsim.contrib.ev.discharging.OhdeSlaskiAuxEnergyConsumption$Factory, annotation=[none]]
2024-01-11T16:25:53,731  INFO Injector:94   ==full==> LinkedKeyBinding{key=Key[type=org.matsim.contrib.ev.discharging.AuxEnergyConsumption$Factory, annotation=[none]], source=org.matsim.contrib.ev.discharging.DischargingModule.install(DischargingModule.java:38), scope=Scopes.SINGLETON, target=Key[type=org.matsim.contrib.ev.discharging.OhdeSlaskiAuxEnergyConsumption$Factory, annotation=[none]]}
2024-01-11T16:25:53,731  INFO Injector:96 
2024-01-11T16:25:53,731  INFO Injector:85 org.matsim.core.mobsim.qsim.AbstractQSimModule @com.google.inject.internal.Element(setName=,uniqueId=131, type=MULTIBINDER, keyType=)
2024-01-11T16:25:53,732  INFO Injector:86   --> provider: ConstantFactory{value=org.matsim.contrib.ev.discharging.DischargingModule$1@a66e580}[Scopes.SINGLETON]
2024-01-11T16:25:53,732  INFO Injector:87   --> source: org.matsim.contrib.ev.discharging.DischargingModule.install(DischargingModule.java:40)
2024-01-11T16:25:53,732  INFO Injector:89   --> scope: eager singleton
2024-01-11T16:25:53,732  INFO Injector:94   ==full==> InstanceBinding{key=Key[type=org.matsim.core.mobsim.qsim.AbstractQSimModule, annotation=@com.google.inject.internal.Element(setName=,uniqueId=131, type=MULTIBINDER, keyType=)], source=org.matsim.contrib.ev.discharging.DischargingModule.install(DischargingModule.java:40), instance=org.matsim.contrib.ev.discharging.DischargingModule$1@a66e580}
2024-01-11T16:25:53,732  INFO Injector:96 
2024-01-11T16:25:53,732  INFO Injector:85 org.matsim.core.events.handler.EventHandler @com.google.inject.internal.Element(setName=,uniqueId=132, type=MULTIBINDER, keyType=)
2024-01-11T16:25:53,732  INFO Injector:86   --> provider: FactoryProxy{key=Key[type=org.matsim.core.events.handler.EventHandler, annotation=@com.google.inject.internal.Element(setName=,uniqueId=132, type=MULTIBINDER, keyType=)], provider=com.google.inject.internal.ConstructorBindingImpl$Factory@3ba46e63[Scopes.SINGLETON]}
2024-01-11T16:25:53,732  INFO Injector:87   --> source: org.matsim.contrib.ev.stats.EvStatsModule.install(EvStatsModule.java:46)
2024-01-11T16:25:53,732  INFO Injector:89   --> scope: Scopes.NO_SCOPE
2024-01-11T16:25:53,732  INFO Injector:92   --> target: Key[type=org.matsim.contrib.ev.charging.ChargingEventSequenceCollector, annotation=[none]]
2024-01-11T16:25:53,732  INFO Injector:94   ==full==> LinkedKeyBinding{key=Key[type=org.matsim.core.events.handler.EventHandler, annotation=@com.google.inject.internal.Element(setName=,uniqueId=132, type=MULTIBINDER, keyType=)], source=org.matsim.contrib.ev.stats.EvStatsModule.install(EvStatsModule.java:46), scope=Scopes.NO_SCOPE, target=Key[type=org.matsim.contrib.ev.charging.ChargingEventSequenceCollector, annotation=[none]]}
2024-01-11T16:25:53,732  INFO Injector:96 
2024-01-11T16:25:53,732  INFO Injector:85 org.matsim.core.controler.listener.ControlerListener @com.google.inject.internal.Element(setName=,uniqueId=133, type=MULTIBINDER, keyType=)
2024-01-11T16:25:53,732  INFO Injector:86   --> provider: FactoryProxy{key=Key[type=org.matsim.core.controler.listener.ControlerListener, annotation=@com.google.inject.internal.Element(setName=,uniqueId=133, type=MULTIBINDER, keyType=)], provider=com.google.inject.internal.ConstructorBindingImpl$Factory@788ddc1f}[Scopes.SINGLETON]
2024-01-11T16:25:53,733  INFO Injector:87   --> source: org.matsim.contrib.ev.stats.EvStatsModule.install(EvStatsModule.java:47)
2024-01-11T16:25:53,733  INFO Injector:89   --> scope: Scopes.SINGLETON
2024-01-11T16:25:53,733  INFO Injector:92   --> target: Key[type=org.matsim.contrib.ev.stats.ChargingProceduresCSVWriter, annotation=[none]]
2024-01-11T16:25:53,733  INFO Injector:94   ==full==> LinkedKeyBinding{key=Key[type=org.matsim.core.controler.listener.ControlerListener, annotation=@com.google.inject.internal.Element(setName=,uniqueId=133, type=MULTIBINDER, keyType=)], source=org.matsim.contrib.ev.stats.EvStatsModule.install(EvStatsModule.java:47), scope=Scopes.SINGLETON, target=Key[type=org.matsim.contrib.ev.stats.ChargingProceduresCSVWriter, annotation=[none]]}
2024-01-11T16:25:53,733  INFO Injector:96 
2024-01-11T16:25:53,733  INFO Injector:85 org.matsim.core.mobsim.qsim.AbstractQSimModule @com.google.inject.internal.Element(setName=,uniqueId=134, type=MULTIBINDER, keyType=)
2024-01-11T16:25:53,733  INFO Injector:86   --> provider: ConstantFactory{value=org.matsim.contrib.ev.stats.EvStatsModule$1@5b852b49}[Scopes.SINGLETON]
2024-01-11T16:25:53,733  INFO Injector:87   --> source: org.matsim.contrib.ev.stats.EvStatsModule.install(EvStatsModule.java:49)
2024-01-11T16:25:53,733  INFO Injector:89   --> scope: eager singleton
2024-01-11T16:25:53,733  INFO Injector:94   ==full==> InstanceBinding{key=Key[type=org.matsim.core.mobsim.qsim.AbstractQSimModule, annotation=@com.google.inject.internal.Element(setName=,uniqueId=134, type=MULTIBINDER, keyType=)], source=org.matsim.contrib.ev.stats.EvStatsModule.install(EvStatsModule.java:49), instance=org.matsim.contrib.ev.stats.EvStatsModule$1@5b852b49}
2024-01-11T16:25:53,733  INFO Injector:96 
2024-01-11T16:25:53,733  INFO Injector:85 org.matsim.core.events.handler.EventHandler @com.google.inject.internal.Element(setName=,uniqueId=135, type=MULTIBINDER, keyType=)
2024-01-11T16:25:53,733  INFO Injector:86   --> provider: FactoryProxy{key=Key[type=org.matsim.core.events.handler.EventHandler, annotation=@com.google.inject.internal.Element(setName=,uniqueId=135, type=MULTIBINDER, keyType=)], provider=com.google.inject.internal.ConstructorBindingImpl$Factory@2dc3271b[Scopes.SINGLETON]}
2024-01-11T16:25:53,734  INFO Injector:87   --> source: org.matsim.contrib.ev.stats.EvStatsModule.install(EvStatsModule.java:70)
2024-01-11T16:25:53,734  INFO Injector:89   --> scope: Scopes.NO_SCOPE
2024-01-11T16:25:53,734  INFO Injector:92   --> target: Key[type=org.matsim.contrib.ev.stats.ChargerPowerTimeProfileCalculator, annotation=[none]]
2024-01-11T16:25:53,734  INFO Injector:94   ==full==> LinkedKeyBinding{key=Key[type=org.matsim.core.events.handler.EventHandler, annotation=@com.google.inject.internal.Element(setName=,uniqueId=135, type=MULTIBINDER, keyType=)], source=org.matsim.contrib.ev.stats.EvStatsModule.install(EvStatsModule.java:70), scope=Scopes.NO_SCOPE, target=Key[type=org.matsim.contrib.ev.stats.ChargerPowerTimeProfileCalculator, annotation=[none]]}
2024-01-11T16:25:53,734  INFO Injector:96 
2024-01-11T16:25:53,734  INFO Injector:85 org.matsim.core.controler.listener.ControlerListener @com.google.inject.internal.Element(setName=,uniqueId=136, type=MULTIBINDER, keyType=)
2024-01-11T16:25:53,734  INFO Injector:86   --> provider: org.matsim.contrib.ev.stats.EvStatsModule$2@66f0548d
2024-01-11T16:25:53,734  INFO Injector:87   --> source: org.matsim.contrib.ev.stats.EvStatsModule.install(EvStatsModule.java:71)
2024-01-11T16:25:53,734  INFO Injector:89   --> scope: Scopes.NO_SCOPE
2024-01-11T16:25:53,734  INFO Injector:94   ==full==> ProviderInstanceBinding{key=Key[type=org.matsim.core.controler.listener.ControlerListener, annotation=@com.google.inject.internal.Element(setName=,uniqueId=136, type=MULTIBINDER, keyType=)], source=org.matsim.contrib.ev.stats.EvStatsModule.install(EvStatsModule.java:71), scope=Scopes.NO_SCOPE, provider=org.matsim.contrib.ev.stats.EvStatsModule$2@66f0548d}
2024-01-11T16:25:53,734  INFO Injector:96 
2024-01-11T16:25:53,734  INFO Injector:85 org.matsim.core.mobsim.qsim.AbstractQSimModule @com.google.inject.internal.Element(setName=,uniqueId=137, type=MULTIBINDER, keyType=)
2024-01-11T16:25:53,735  INFO Injector:86   --> provider: ConstantFactory{value=org.matsim.contrib.ev.EvModule$1@cdb2d95}[Scopes.SINGLETON]
2024-01-11T16:25:53,735  INFO Injector:87   --> source: org.matsim.contrib.ev.EvModule.install(EvModule.java:41)
2024-01-11T16:25:53,735  INFO Injector:89   --> scope: eager singleton
2024-01-11T16:25:53,735  INFO Injector:94   ==full==> InstanceBinding{key=Key[type=org.matsim.core.mobsim.qsim.AbstractQSimModule, annotation=@com.google.inject.internal.Element(setName=,uniqueId=137, type=MULTIBINDER, keyType=)], source=org.matsim.contrib.ev.EvModule.install(EvModule.java:41), instance=org.matsim.contrib.ev.EvModule$1@cdb2d95}
2024-01-11T16:25:53,735  INFO Injector:96 
2024-01-11T16:25:53,735  INFO Injector:85 org.matsim.core.router.RoutingModule @com.google.inject.name.Named("car")
2024-01-11T16:25:53,735  INFO Injector:86   --> provider: org.matsim.contrib.ev.routing.EvNetworkRoutingProvider@2e6f610d
2024-01-11T16:25:53,735  INFO Injector:87   --> source: org.matsim.contrib.ev.eTruckTraffic.RunETruckTraffic$1.install(RunETruckTraffic.java:65)
2024-01-11T16:25:53,735  INFO Injector:89   --> scope: Scopes.NO_SCOPE
2024-01-11T16:25:53,736  INFO Injector:94   ==full==> ProviderInstanceBinding{key=Key[type=org.matsim.core.router.RoutingModule, annotation=@com.google.inject.name.Named("car")], source=org.matsim.contrib.ev.eTruckTraffic.RunETruckTraffic$1.install(RunETruckTraffic.java:65), scope=Scopes.NO_SCOPE, provider=org.matsim.contrib.ev.routing.EvNetworkRoutingProvider@2e6f610d}
2024-01-11T16:25:53,736  INFO Injector:96 
2024-01-11T16:25:53,736  INFO Injector:85 org.matsim.api.core.v01.Scenario 
2024-01-11T16:25:53,736  INFO Injector:86   --> provider: ConstantFactory{value=org.matsim.core.scenario.MutableScenario@254f906e}[Scopes.SINGLETON]
2024-01-11T16:25:53,736  INFO Injector:87   --> source: org.matsim.core.scenario.ScenarioByInstanceModule.install(ScenarioByInstanceModule.java:52)
2024-01-11T16:25:53,736  INFO Injector:89   --> scope: eager singleton
2024-01-11T16:25:53,736  INFO Injector:94   ==full==> InstanceBinding{key=Key[type=org.matsim.api.core.v01.Scenario, annotation=[none]], source=org.matsim.core.scenario.ScenarioByInstanceModule.install(ScenarioByInstanceModule.java:52), instance=org.matsim.core.scenario.MutableScenario@254f906e}
2024-01-11T16:25:53,736  INFO Injector:96 
2024-01-11T16:25:53,736  INFO Injector:85 org.matsim.facilities.ActivityFacilities 
2024-01-11T16:25:53,737  INFO Injector:86   --> provider: @Provides org.matsim.core.scenario.ScenarioByInstanceModule.provideActivityFacilities(ScenarioByInstanceModule.java:72)
2024-01-11T16:25:53,737  INFO Injector:87   --> source: org.matsim.facilities.ActivityFacilities org.matsim.core.scenario.ScenarioByInstanceModule.provideActivityFacilities(org.matsim.api.core.v01.Scenario)
2024-01-11T16:25:53,737  INFO Injector:89   --> scope: Scopes.NO_SCOPE
2024-01-11T16:25:53,738  INFO Injector:94   ==full==> ProviderInstanceBinding{key=Key[type=org.matsim.facilities.ActivityFacilities, annotation=[none]], source=org.matsim.facilities.ActivityFacilities org.matsim.core.scenario.ScenarioByInstanceModule.provideActivityFacilities(org.matsim.api.core.v01.Scenario), scope=Scopes.NO_SCOPE, provider=@Provides org.matsim.core.scenario.ScenarioByInstanceModule.provideActivityFacilities(ScenarioByInstanceModule.java:72)}
2024-01-11T16:25:53,738  INFO Injector:96 
2024-01-11T16:25:53,738  INFO Injector:85 org.matsim.households.Households 
2024-01-11T16:25:53,738  INFO Injector:86   --> provider: @Provides org.matsim.core.scenario.ScenarioByInstanceModule.provideHouseholds(ScenarioByInstanceModule.java:77)
2024-01-11T16:25:53,738  INFO Injector:87   --> source: org.matsim.households.Households org.matsim.core.scenario.ScenarioByInstanceModule.provideHouseholds(org.matsim.api.core.v01.Scenario)
2024-01-11T16:25:53,738  INFO Injector:89   --> scope: Scopes.NO_SCOPE
2024-01-11T16:25:53,739  INFO Injector:94   ==full==> ProviderInstanceBinding{key=Key[type=org.matsim.households.Households, annotation=[none]], source=org.matsim.households.Households org.matsim.core.scenario.ScenarioByInstanceModule.provideHouseholds(org.matsim.api.core.v01.Scenario), scope=Scopes.NO_SCOPE, provider=@Provides org.matsim.core.scenario.ScenarioByInstanceModule.provideHouseholds(ScenarioByInstanceModule.java:77)}
2024-01-11T16:25:53,739  INFO Injector:96 
2024-01-11T16:25:53,739  INFO Injector:85 org.matsim.lanes.Lanes 
2024-01-11T16:25:53,739  INFO Injector:86   --> provider: @Provides org.matsim.core.scenario.ScenarioByInstanceModule.provideLanes(ScenarioByInstanceModule.java:87)
2024-01-11T16:25:53,739  INFO Injector:87   --> source: org.matsim.lanes.Lanes org.matsim.core.scenario.ScenarioByInstanceModule.provideLanes(org.matsim.api.core.v01.Scenario)
2024-01-11T16:25:53,739  INFO Injector:89   --> scope: Scopes.NO_SCOPE
2024-01-11T16:25:53,739  INFO Injector:94   ==full==> ProviderInstanceBinding{key=Key[type=org.matsim.lanes.Lanes, annotation=[none]], source=org.matsim.lanes.Lanes org.matsim.core.scenario.ScenarioByInstanceModule.provideLanes(org.matsim.api.core.v01.Scenario), scope=Scopes.NO_SCOPE, provider=@Provides org.matsim.core.scenario.ScenarioByInstanceModule.provideLanes(ScenarioByInstanceModule.java:87)}
2024-01-11T16:25:53,739  INFO Injector:96 
2024-01-11T16:25:53,739  INFO Injector:85 org.matsim.api.core.v01.network.Network 
2024-01-11T16:25:53,740  INFO Injector:86   --> provider: @Provides org.matsim.core.scenario.ScenarioByInstanceModule.provideNetwork(ScenarioByInstanceModule.java:60)
2024-01-11T16:25:53,740  INFO Injector:87   --> source: org.matsim.api.core.v01.network.Network org.matsim.core.scenario.ScenarioByInstanceModule.provideNetwork(org.matsim.api.core.v01.Scenario)
2024-01-11T16:25:53,740  INFO Injector:89   --> scope: Scopes.NO_SCOPE
2024-01-11T16:25:53,740  INFO Injector:94   ==full==> ProviderInstanceBinding{key=Key[type=org.matsim.api.core.v01.network.Network, annotation=[none]], source=org.matsim.api.core.v01.network.Network org.matsim.core.scenario.ScenarioByInstanceModule.provideNetwork(org.matsim.api.core.v01.Scenario), scope=Scopes.NO_SCOPE, provider=@Provides org.matsim.core.scenario.ScenarioByInstanceModule.provideNetwork(ScenarioByInstanceModule.java:60)}
2024-01-11T16:25:53,740  INFO Injector:96 
2024-01-11T16:25:53,740  INFO Injector:85 org.matsim.api.core.v01.population.Population 
2024-01-11T16:25:53,740  INFO Injector:86   --> provider: @Provides org.matsim.core.scenario.ScenarioByInstanceModule.providePopulation(ScenarioByInstanceModule.java:64)
2024-01-11T16:25:53,740  INFO Injector:87   --> source: org.matsim.api.core.v01.population.Population org.matsim.core.scenario.ScenarioByInstanceModule.providePopulation(org.matsim.api.core.v01.Scenario)
2024-01-11T16:25:53,740  INFO Injector:89   --> scope: Scopes.NO_SCOPE
2024-01-11T16:25:53,741  INFO Injector:94   ==full==> ProviderInstanceBinding{key=Key[type=org.matsim.api.core.v01.population.Population, annotation=[none]], source=org.matsim.api.core.v01.population.Population org.matsim.core.scenario.ScenarioByInstanceModule.providePopulation(org.matsim.api.core.v01.Scenario), scope=Scopes.NO_SCOPE, provider=@Provides org.matsim.core.scenario.ScenarioByInstanceModule.providePopulation(ScenarioByInstanceModule.java:64)}
2024-01-11T16:25:53,741  INFO Injector:96 
2024-01-11T16:25:53,741  INFO Injector:85 org.matsim.api.core.v01.population.PopulationFactory 
2024-01-11T16:25:53,741  INFO Injector:86   --> provider: @Provides org.matsim.core.scenario.ScenarioByInstanceModule.providePopulationFactory(ScenarioByInstanceModule.java:68)
2024-01-11T16:25:53,741  INFO Injector:87   --> source: org.matsim.api.core.v01.population.PopulationFactory org.matsim.core.scenario.ScenarioByInstanceModule.providePopulationFactory(org.matsim.api.core.v01.population.Population)
2024-01-11T16:25:53,741  INFO Injector:89   --> scope: Scopes.NO_SCOPE
2024-01-11T16:25:53,741  INFO Injector:94   ==full==> ProviderInstanceBinding{key=Key[type=org.matsim.api.core.v01.population.PopulationFactory, annotation=[none]], source=org.matsim.api.core.v01.population.PopulationFactory org.matsim.core.scenario.ScenarioByInstanceModule.providePopulationFactory(org.matsim.api.core.v01.population.Population), scope=Scopes.NO_SCOPE, provider=@Provides org.matsim.core.scenario.ScenarioByInstanceModule.providePopulationFactory(ScenarioByInstanceModule.java:68)}
2024-01-11T16:25:53,741  INFO Injector:96 
2024-01-11T16:25:53,741  INFO Injector:85 org.matsim.vehicles.Vehicles 
2024-01-11T16:25:53,741  INFO Injector:86   --> provider: @Provides org.matsim.core.scenario.ScenarioByInstanceModule.provideVehicles(ScenarioByInstanceModule.java:82)
2024-01-11T16:25:53,742  INFO Injector:87   --> source: org.matsim.vehicles.Vehicles org.matsim.core.scenario.ScenarioByInstanceModule.provideVehicles(org.matsim.api.core.v01.Scenario)
2024-01-11T16:25:53,742  INFO Injector:89   --> scope: Scopes.NO_SCOPE
2024-01-11T16:25:53,742  INFO Injector:94   ==full==> ProviderInstanceBinding{key=Key[type=org.matsim.vehicles.Vehicles, annotation=[none]], source=org.matsim.vehicles.Vehicles org.matsim.core.scenario.ScenarioByInstanceModule.provideVehicles(org.matsim.api.core.v01.Scenario), scope=Scopes.NO_SCOPE, provider=@Provides org.matsim.core.scenario.ScenarioByInstanceModule.provideVehicles(ScenarioByInstanceModule.java:82)}
2024-01-11T16:25:53,742  INFO Injector:96 
2024-01-11T16:25:53,742  INFO Injector:85 org.matsim.core.controler.ControlerI 
2024-01-11T16:25:53,742  INFO Injector:86   --> provider: FactoryProxy{key=Key[type=org.matsim.core.controler.ControlerI, annotation=[none]], provider=com.google.inject.internal.ConstructorBindingImpl$Factory@2bfb6b49}[Scopes.SINGLETON]
2024-01-11T16:25:53,742  INFO Injector:87   --> source: org.matsim.core.controler.NewControlerModule.install(NewControlerModule.java:30)
2024-01-11T16:25:53,742  INFO Injector:89   --> scope: eager singleton
2024-01-11T16:25:53,742  INFO Injector:92   --> target: Key[type=org.matsim.core.controler.NewControler, annotation=[none]]
2024-01-11T16:25:53,743  INFO Injector:94   ==full==> LinkedKeyBinding{key=Key[type=org.matsim.core.controler.ControlerI, annotation=[none]], source=org.matsim.core.controler.NewControlerModule.install(NewControlerModule.java:30), scope=eager singleton, target=Key[type=org.matsim.core.controler.NewControler, annotation=[none]]}
2024-01-11T16:25:53,743  INFO Injector:96 
2024-01-11T16:25:53,743  INFO Injector:85 org.matsim.core.controler.ControlerListenerManager 
2024-01-11T16:25:53,743  INFO Injector:86   --> provider: FactoryProxy{key=Key[type=org.matsim.core.controler.ControlerListenerManager, annotation=[none]], provider=com.google.inject.internal.ConstructorBindingImpl$Factory@1f346ad2[Scopes.SINGLETON]}
2024-01-11T16:25:53,743  INFO Injector:87   --> source: org.matsim.core.controler.NewControlerModule.install(NewControlerModule.java:32)
2024-01-11T16:25:53,743  INFO Injector:89   --> scope: Scopes.NO_SCOPE
2024-01-11T16:25:53,743  INFO Injector:92   --> target: Key[type=org.matsim.core.controler.ControlerListenerManagerImpl, annotation=[none]]
2024-01-11T16:25:53,743  INFO Injector:94   ==full==> LinkedKeyBinding{key=Key[type=org.matsim.core.controler.ControlerListenerManager, annotation=[none]], source=org.matsim.core.controler.NewControlerModule.install(NewControlerModule.java:32), scope=Scopes.NO_SCOPE, target=Key[type=org.matsim.core.controler.ControlerListenerManagerImpl, annotation=[none]]}
2024-01-11T16:25:53,743  INFO Injector:96 
2024-01-11T16:25:53,743  INFO Injector:85 org.matsim.core.controler.TerminationCriterion 
2024-01-11T16:25:53,743  INFO Injector:86   --> provider: FactoryProxy{key=Key[type=org.matsim.core.controler.TerminationCriterion, annotation=[none]], provider=com.google.inject.internal.ConstructorBindingImpl$Factory@46a145ba}
2024-01-11T16:25:53,744  INFO Injector:87   --> source: org.matsim.core.controler.NewControlerModule.install(NewControlerModule.java:36)
2024-01-11T16:25:53,744  INFO Injector:89   --> scope: Scopes.NO_SCOPE
2024-01-11T16:25:53,744  INFO Injector:92   --> target: Key[type=org.matsim.core.controler.TerminateAtFixedIterationNumber, annotation=[none]]
2024-01-11T16:25:53,744  INFO Injector:94   ==full==> LinkedKeyBinding{key=Key[type=org.matsim.core.controler.TerminationCriterion, annotation=[none]], source=org.matsim.core.controler.NewControlerModule.install(NewControlerModule.java:36), scope=Scopes.NO_SCOPE, target=Key[type=org.matsim.core.controler.TerminateAtFixedIterationNumber, annotation=[none]]}
2024-01-11T16:25:53,744  INFO Injector:96 
2024-01-11T16:25:53,744  INFO Injector:85 org.matsim.core.controler.MatsimServices 
2024-01-11T16:25:53,744  INFO Injector:86   --> provider: FactoryProxy{key=Key[type=org.matsim.core.controler.MatsimServices, annotation=[none]], provider=com.google.inject.internal.ConstructorBindingImpl$Factory@7ab34619}
2024-01-11T16:25:53,744  INFO Injector:87   --> source: org.matsim.core.controler.NewControlerModule.install(NewControlerModule.java:37)
2024-01-11T16:25:53,744  INFO Injector:89   --> scope: Scopes.NO_SCOPE
2024-01-11T16:25:53,744  INFO Injector:92   --> target: Key[type=org.matsim.core.controler.MatsimServicesImpl, annotation=[none]]
2024-01-11T16:25:53,744  INFO Injector:94   ==full==> LinkedKeyBinding{key=Key[type=org.matsim.core.controler.MatsimServices, annotation=[none]], source=org.matsim.core.controler.NewControlerModule.install(NewControlerModule.java:37), scope=Scopes.NO_SCOPE, target=Key[type=org.matsim.core.controler.MatsimServicesImpl, annotation=[none]]}
2024-01-11T16:25:53,744  INFO Injector:96 
2024-01-11T16:25:53,745  INFO Injector:85 org.matsim.core.controler.IterationCounter 
2024-01-11T16:25:53,745  INFO Injector:86   --> provider: FactoryProxy{key=Key[type=org.matsim.core.controler.IterationCounter, annotation=[none]], provider=com.google.inject.internal.ConstructorBindingImpl$Factory@7ab34619}
2024-01-11T16:25:53,745  INFO Injector:87   --> source: org.matsim.core.controler.NewControlerModule.install(NewControlerModule.java:39)
2024-01-11T16:25:53,745  INFO Injector:89   --> scope: Scopes.NO_SCOPE
2024-01-11T16:25:53,745  INFO Injector:92   --> target: Key[type=org.matsim.core.controler.MatsimServicesImpl, annotation=[none]]
2024-01-11T16:25:53,745  INFO Injector:94   ==full==> LinkedKeyBinding{key=Key[type=org.matsim.core.controler.IterationCounter, annotation=[none]], source=org.matsim.core.controler.NewControlerModule.install(NewControlerModule.java:39), scope=Scopes.NO_SCOPE, target=Key[type=org.matsim.core.controler.MatsimServicesImpl, annotation=[none]]}
2024-01-11T16:25:53,745  INFO Injector:96 
2024-01-11T16:25:53,745  INFO Injector:85 org.matsim.core.controler.PrepareForSim 
2024-01-11T16:25:53,745  INFO Injector:86   --> provider: FactoryProxy{key=Key[type=org.matsim.core.controler.PrepareForSim, annotation=[none]], provider=com.google.inject.internal.ConstructorBindingImpl$Factory@ae2db25}
2024-01-11T16:25:53,745  INFO Injector:87   --> source: org.matsim.core.controler.NewControlerModule.install(NewControlerModule.java:43)
2024-01-11T16:25:53,745  INFO Injector:89   --> scope: Scopes.NO_SCOPE
2024-01-11T16:25:53,745  INFO Injector:92   --> target: Key[type=org.matsim.core.controler.PrepareForSimImpl, annotation=[none]]
2024-01-11T16:25:53,746  INFO Injector:94   ==full==> LinkedKeyBinding{key=Key[type=org.matsim.core.controler.PrepareForSim, annotation=[none]], source=org.matsim.core.controler.NewControlerModule.install(NewControlerModule.java:43), scope=Scopes.NO_SCOPE, target=Key[type=org.matsim.core.controler.PrepareForSimImpl, annotation=[none]]}
2024-01-11T16:25:53,746  INFO Injector:96 
2024-01-11T16:25:53,746  INFO Injector:85 org.matsim.core.controler.PrepareForMobsim 
2024-01-11T16:25:53,746  INFO Injector:86   --> provider: FactoryProxy{key=Key[type=org.matsim.core.controler.PrepareForMobsim, annotation=[none]], provider=com.google.inject.internal.ConstructorBindingImpl$Factory@363c4251}
2024-01-11T16:25:53,746  INFO Injector:87   --> source: org.matsim.core.controler.NewControlerModule.install(NewControlerModule.java:44)
2024-01-11T16:25:53,746  INFO Injector:89   --> scope: Scopes.NO_SCOPE
2024-01-11T16:25:53,746  INFO Injector:92   --> target: Key[type=org.matsim.core.controler.PrepareForMobsimImpl, annotation=[none]]
2024-01-11T16:25:53,746  INFO Injector:94   ==full==> LinkedKeyBinding{key=Key[type=org.matsim.core.controler.PrepareForMobsim, annotation=[none]], source=org.matsim.core.controler.NewControlerModule.install(NewControlerModule.java:44), scope=Scopes.NO_SCOPE, target=Key[type=org.matsim.core.controler.PrepareForMobsimImpl, annotation=[none]]}
2024-01-11T16:25:53,747  INFO Injector:96 
2024-01-11T16:25:53,747  INFO Injector:85 org.matsim.core.controler.corelisteners.PlansScoring 
2024-01-11T16:25:53,747  INFO Injector:86   --> provider: FactoryProxy{key=Key[type=org.matsim.core.controler.corelisteners.PlansScoring, annotation=[none]], provider=com.google.inject.internal.ConstructorBindingImpl$Factory@7afc4db9[Scopes.SINGLETON]}
2024-01-11T16:25:53,747  INFO Injector:87   --> source: org.matsim.core.scoring.PlansScoringModule.install(PlansScoringModule.java:33)
2024-01-11T16:25:53,747  INFO Injector:89   --> scope: Scopes.NO_SCOPE
2024-01-11T16:25:53,747  INFO Injector:92   --> target: Key[type=org.matsim.core.scoring.PlansScoringImpl, annotation=[none]]
2024-01-11T16:25:53,747  INFO Injector:94   ==full==> LinkedKeyBinding{key=Key[type=org.matsim.core.controler.corelisteners.PlansScoring, annotation=[none]], source=org.matsim.core.scoring.PlansScoringModule.install(PlansScoringModule.java:33), scope=Scopes.NO_SCOPE, target=Key[type=org.matsim.core.scoring.PlansScoringImpl, annotation=[none]]}
2024-01-11T16:25:53,747  INFO Injector:96 
2024-01-11T16:25:53,748  INFO Injector:85 org.matsim.core.scoring.ExperiencedPlansService 
2024-01-11T16:25:53,748  INFO Injector:86   --> provider: FactoryProxy{key=Key[type=org.matsim.core.scoring.ExperiencedPlansService, annotation=[none]], provider=com.google.inject.internal.ConstructorBindingImpl$Factory@1a1f5f71}[Scopes.SINGLETON]
2024-01-11T16:25:53,748  INFO Injector:87   --> source: org.matsim.core.scoring.PlansScoringModule.install(PlansScoringModule.java:34)
2024-01-11T16:25:53,748  INFO Injector:89   --> scope: eager singleton
2024-01-11T16:25:53,748  INFO Injector:92   --> target: Key[type=org.matsim.core.scoring.ExperiencedPlansServiceImpl, annotation=[none]]
2024-01-11T16:25:53,748  INFO Injector:94   ==full==> LinkedKeyBinding{key=Key[type=org.matsim.core.scoring.ExperiencedPlansService, annotation=[none]], source=org.matsim.core.scoring.PlansScoringModule.install(PlansScoringModule.java:34), scope=eager singleton, target=Key[type=org.matsim.core.scoring.ExperiencedPlansServiceImpl, annotation=[none]]}
2024-01-11T16:25:53,748  INFO Injector:96 
2024-01-11T16:25:53,748  INFO Injector:85 org.matsim.core.controler.corelisteners.PlansReplanning 
2024-01-11T16:25:53,749  INFO Injector:86   --> provider: FactoryProxy{key=Key[type=org.matsim.core.controler.corelisteners.PlansReplanning, annotation=[none]], provider=com.google.inject.internal.ConstructorBindingImpl$Factory@63884e4[Scopes.SINGLETON]}
2024-01-11T16:25:53,749  INFO Injector:87   --> source: org.matsim.core.controler.corelisteners.ControlerDefaultCoreListenersModule.install(ControlerDefaultCoreListenersModule.java:38)
2024-01-11T16:25:53,749  INFO Injector:89   --> scope: Scopes.NO_SCOPE
2024-01-11T16:25:53,749  INFO Injector:92   --> target: Key[type=org.matsim.core.controler.corelisteners.PlansReplanningImpl, annotation=[none]]
2024-01-11T16:25:53,749  INFO Injector:94   ==full==> LinkedKeyBinding{key=Key[type=org.matsim.core.controler.corelisteners.PlansReplanning, annotation=[none]], source=org.matsim.core.controler.corelisteners.ControlerDefaultCoreListenersModule.install(ControlerDefaultCoreListenersModule.java:38), scope=Scopes.NO_SCOPE, target=Key[type=org.matsim.core.controler.corelisteners.PlansReplanningImpl, annotation=[none]]}
2024-01-11T16:25:53,749  INFO Injector:96 
2024-01-11T16:25:53,749  INFO Injector:85 org.matsim.core.controler.corelisteners.PlansDumping 
2024-01-11T16:25:53,749  INFO Injector:86   --> provider: FactoryProxy{key=Key[type=org.matsim.core.controler.corelisteners.PlansDumping, annotation=[none]], provider=com.google.inject.internal.ConstructorBindingImpl$Factory@524270b8[Scopes.SINGLETON]}
2024-01-11T16:25:53,749  INFO Injector:87   --> source: org.matsim.core.controler.corelisteners.ControlerDefaultCoreListenersModule.install(ControlerDefaultCoreListenersModule.java:39)
2024-01-11T16:25:53,749  INFO Injector:89   --> scope: Scopes.NO_SCOPE
2024-01-11T16:25:53,749  INFO Injector:92   --> target: Key[type=org.matsim.core.controler.corelisteners.PlansDumpingImpl, annotation=[none]]
2024-01-11T16:25:53,749  INFO Injector:94   ==full==> LinkedKeyBinding{key=Key[type=org.matsim.core.controler.corelisteners.PlansDumping, annotation=[none]], source=org.matsim.core.controler.corelisteners.ControlerDefaultCoreListenersModule.install(ControlerDefaultCoreListenersModule.java:39), scope=Scopes.NO_SCOPE, target=Key[type=org.matsim.core.controler.corelisteners.PlansDumpingImpl, annotation=[none]]}
2024-01-11T16:25:53,750  INFO Injector:96 
2024-01-11T16:25:53,750  INFO Injector:85 org.matsim.core.controler.corelisteners.EventsHandling 
2024-01-11T16:25:53,750  INFO Injector:86   --> provider: FactoryProxy{key=Key[type=org.matsim.core.controler.corelisteners.EventsHandling, annotation=[none]], provider=com.google.inject.internal.ConstructorBindingImpl$Factory@4acb7ecc[Scopes.SINGLETON]}
2024-01-11T16:25:53,750  INFO Injector:87   --> source: org.matsim.core.controler.corelisteners.ControlerDefaultCoreListenersModule.install(ControlerDefaultCoreListenersModule.java:40)
2024-01-11T16:25:53,750  INFO Injector:89   --> scope: Scopes.NO_SCOPE
2024-01-11T16:25:53,750  INFO Injector:92   --> target: Key[type=org.matsim.core.controler.corelisteners.EventsHandlingImpl, annotation=[none]]
2024-01-11T16:25:53,750  INFO Injector:94   ==full==> LinkedKeyBinding{key=Key[type=org.matsim.core.controler.corelisteners.EventsHandling, annotation=[none]], source=org.matsim.core.controler.corelisteners.ControlerDefaultCoreListenersModule.install(ControlerDefaultCoreListenersModule.java:40), scope=Scopes.NO_SCOPE, target=Key[type=org.matsim.core.controler.corelisteners.EventsHandlingImpl, annotation=[none]]}
2024-01-11T16:25:53,750  INFO Injector:96 
2024-01-11T16:25:53,750  INFO Injector:85 org.matsim.core.controler.corelisteners.DumpDataAtEnd 
2024-01-11T16:25:53,750  INFO Injector:86   --> provider: FactoryProxy{key=Key[type=org.matsim.core.controler.corelisteners.DumpDataAtEnd, annotation=[none]], provider=com.google.inject.internal.ConstructorBindingImpl$Factory@2a4f5433[Scopes.SINGLETON]}
2024-01-11T16:25:53,751  INFO Injector:87   --> source: org.matsim.core.controler.corelisteners.ControlerDefaultCoreListenersModule.install(ControlerDefaultCoreListenersModule.java:41)
2024-01-11T16:25:53,751  INFO Injector:89   --> scope: Scopes.NO_SCOPE
2024-01-11T16:25:53,751  INFO Injector:92   --> target: Key[type=org.matsim.core.controler.corelisteners.DumpDataAtEndImpl, annotation=[none]]
2024-01-11T16:25:53,751  INFO Injector:94   ==full==> LinkedKeyBinding{key=Key[type=org.matsim.core.controler.corelisteners.DumpDataAtEnd, annotation=[none]], source=org.matsim.core.controler.corelisteners.ControlerDefaultCoreListenersModule.install(ControlerDefaultCoreListenersModule.java:41), scope=Scopes.NO_SCOPE, target=Key[type=org.matsim.core.controler.corelisteners.DumpDataAtEndImpl, annotation=[none]]}
2024-01-11T16:25:53,751  INFO Injector:96 
2024-01-11T16:25:53,751  INFO Injector:85 org.matsim.core.api.experimental.events.EventsManager 
2024-01-11T16:25:53,751  INFO Injector:86   --> provider: FactoryProxy{key=Key[type=org.matsim.core.api.experimental.events.EventsManager, annotation=[none]], provider=com.google.inject.internal.ConstructorBindingImpl$Factory@6812fa3a}[Scopes.SINGLETON]
2024-01-11T16:25:53,751  INFO Injector:87   --> source: org.matsim.core.events.EventsManagerModule.install(EventsManagerModule.java:46)
2024-01-11T16:25:53,751  INFO Injector:89   --> scope: Scopes.SINGLETON
2024-01-11T16:25:53,751  INFO Injector:92   --> target: Key[type=org.matsim.core.events.SimStepParallelEventsManagerImpl, annotation=[none]]
2024-01-11T16:25:53,751  INFO Injector:94   ==full==> LinkedKeyBinding{key=Key[type=org.matsim.core.api.experimental.events.EventsManager, annotation=[none]], source=org.matsim.core.events.EventsManagerModule.install(EventsManagerModule.java:46), scope=Scopes.SINGLETON, target=Key[type=org.matsim.core.events.SimStepParallelEventsManagerImpl, annotation=[none]]}
2024-01-11T16:25:53,751  INFO Injector:96 
2024-01-11T16:25:53,751  INFO Injector:85 org.matsim.core.mobsim.qsim.components.QSimComponentsConfig 
2024-01-11T16:25:53,752  INFO Injector:86   --> provider: @Provides org.matsim.core.mobsim.qsim.components.QSimComponentsModule.provideDefaultQSimComponentsConfig(QSimComponentsModule.java:34)[Scopes.SINGLETON]
2024-01-11T16:25:53,752  INFO Injector:87   --> source: public org.matsim.core.mobsim.qsim.components.QSimComponentsConfig org.matsim.core.mobsim.qsim.components.QSimComponentsModule.provideDefaultQSimComponentsConfig(org.matsim.core.config.Config)
2024-01-11T16:25:53,752  INFO Injector:89   --> scope: Scopes.SINGLETON
2024-01-11T16:25:53,752  INFO Injector:94   ==full==> ProviderInstanceBinding{key=Key[type=org.matsim.core.mobsim.qsim.components.QSimComponentsConfig, annotation=[none]], source=public org.matsim.core.mobsim.qsim.components.QSimComponentsConfig org.matsim.core.mobsim.qsim.components.QSimComponentsModule.provideDefaultQSimComponentsConfig(org.matsim.core.config.Config), scope=Scopes.SINGLETON, provider=@Provides org.matsim.core.mobsim.qsim.components.QSimComponentsModule.provideDefaultQSimComponentsConfig(QSimComponentsModule.java:34)}
2024-01-11T16:25:53,753  INFO Injector:96 
2024-01-11T16:25:53,753  INFO Injector:85 org.matsim.core.mobsim.qsim.AbstractQSimModule @com.google.inject.internal.Element(setName=,uniqueId=104, type=MULTIBINDER, keyType=)
2024-01-11T16:25:53,753  INFO Injector:86   --> provider: ConstantFactory{value=org.matsim.core.mobsim.qsim.messagequeueengine.MessageQueueModule@122d6c22}[Scopes.SINGLETON]
2024-01-11T16:25:53,753  INFO Injector:87   --> source: org.matsim.core.mobsim.qsim.QSimModule.lambda$install$0(QSimModule.java:85)
2024-01-11T16:25:53,753  INFO Injector:89   --> scope: eager singleton
2024-01-11T16:25:53,753  INFO Injector:94   ==full==> InstanceBinding{key=Key[type=org.matsim.core.mobsim.qsim.AbstractQSimModule, annotation=@com.google.inject.internal.Element(setName=,uniqueId=104, type=MULTIBINDER, keyType=)], source=org.matsim.core.mobsim.qsim.QSimModule.lambda$install$0(QSimModule.java:85), instance=org.matsim.core.mobsim.qsim.messagequeueengine.MessageQueueModule@122d6c22}
2024-01-11T16:25:53,753  INFO Injector:96 
2024-01-11T16:25:53,753  INFO Injector:85 org.matsim.core.mobsim.qsim.AbstractQSimModule @com.google.inject.internal.Element(setName=,uniqueId=105, type=MULTIBINDER, keyType=)
2024-01-11T16:25:53,753  INFO Injector:86   --> provider: ConstantFactory{value=org.matsim.core.mobsim.qsim.ActivityEngineModule@2f5ac102}[Scopes.SINGLETON]
2024-01-11T16:25:53,753  INFO Injector:87   --> source: org.matsim.core.mobsim.qsim.QSimModule.lambda$install$0(QSimModule.java:85)
2024-01-11T16:25:53,753  INFO Injector:89   --> scope: eager singleton
2024-01-11T16:25:53,753  INFO Injector:94   ==full==> InstanceBinding{key=Key[type=org.matsim.core.mobsim.qsim.AbstractQSimModule, annotation=@com.google.inject.internal.Element(setName=,uniqueId=105, type=MULTIBINDER, keyType=)], source=org.matsim.core.mobsim.qsim.QSimModule.lambda$install$0(QSimModule.java:85), instance=org.matsim.core.mobsim.qsim.ActivityEngineModule@2f5ac102}
2024-01-11T16:25:53,753  INFO Injector:96 
2024-01-11T16:25:53,753  INFO Injector:85 org.matsim.core.mobsim.qsim.AbstractQSimModule @com.google.inject.internal.Element(setName=,uniqueId=106, type=MULTIBINDER, keyType=)
2024-01-11T16:25:53,754  INFO Injector:86   --> provider: ConstantFactory{value=org.matsim.core.mobsim.qsim.qnetsimengine.QNetsimEngineModule@5df778c3}[Scopes.SINGLETON]
2024-01-11T16:25:53,754  INFO Injector:87   --> source: org.matsim.core.mobsim.qsim.QSimModule.lambda$install$0(QSimModule.java:85)
2024-01-11T16:25:53,754  INFO Injector:89   --> scope: eager singleton
2024-01-11T16:25:53,754  INFO Injector:94   ==full==> InstanceBinding{key=Key[type=org.matsim.core.mobsim.qsim.AbstractQSimModule, annotation=@com.google.inject.internal.Element(setName=,uniqueId=106, type=MULTIBINDER, keyType=)], source=org.matsim.core.mobsim.qsim.QSimModule.lambda$install$0(QSimModule.java:85), instance=org.matsim.core.mobsim.qsim.qnetsimengine.QNetsimEngineModule@5df778c3}
2024-01-11T16:25:53,754  INFO Injector:96 
2024-01-11T16:25:53,754  INFO Injector:85 org.matsim.core.mobsim.qsim.AbstractQSimModule @com.google.inject.internal.Element(setName=,uniqueId=107, type=MULTIBINDER, keyType=)
2024-01-11T16:25:53,754  INFO Injector:86   --> provider: ConstantFactory{value=org.matsim.core.mobsim.qsim.TeleportationModule@895416d}[Scopes.SINGLETON]
2024-01-11T16:25:53,754  INFO Injector:87   --> source: org.matsim.core.mobsim.qsim.QSimModule.lambda$install$0(QSimModule.java:85)
2024-01-11T16:25:53,754  INFO Injector:89   --> scope: eager singleton
2024-01-11T16:25:53,754  INFO Injector:94   ==full==> InstanceBinding{key=Key[type=org.matsim.core.mobsim.qsim.AbstractQSimModule, annotation=@com.google.inject.internal.Element(setName=,uniqueId=107, type=MULTIBINDER, keyType=)], source=org.matsim.core.mobsim.qsim.QSimModule.lambda$install$0(QSimModule.java:85), instance=org.matsim.core.mobsim.qsim.TeleportationModule@895416d}
2024-01-11T16:25:53,754  INFO Injector:96 
2024-01-11T16:25:53,754  INFO Injector:85 org.matsim.core.mobsim.qsim.AbstractQSimModule @com.google.inject.internal.Element(setName=,uniqueId=108, type=MULTIBINDER, keyType=)
2024-01-11T16:25:53,755  INFO Injector:86   --> provider: ConstantFactory{value=org.matsim.core.mobsim.qsim.PopulationModule@71a06021}[Scopes.SINGLETON]
2024-01-11T16:25:53,755  INFO Injector:87   --> source: org.matsim.core.mobsim.qsim.QSimModule.lambda$install$0(QSimModule.java:85)
2024-01-11T16:25:53,755  INFO Injector:89   --> scope: eager singleton
2024-01-11T16:25:53,755  INFO Injector:94   ==full==> InstanceBinding{key=Key[type=org.matsim.core.mobsim.qsim.AbstractQSimModule, annotation=@com.google.inject.internal.Element(setName=,uniqueId=108, type=MULTIBINDER, keyType=)], source=org.matsim.core.mobsim.qsim.QSimModule.lambda$install$0(QSimModule.java:85), instance=org.matsim.core.mobsim.qsim.PopulationModule@71a06021}
2024-01-11T16:25:53,755  INFO Injector:96 
2024-01-11T16:25:53,755  INFO Injector:85 org.matsim.core.mobsim.qsim.AbstractQSimModule @com.google.inject.internal.Element(setName=,uniqueId=109, type=MULTIBINDER, keyType=)
2024-01-11T16:25:53,755  INFO Injector:86   --> provider: ConstantFactory{value=org.matsim.core.mobsim.qsim.changeeventsengine.NetworkChangeEventsModule@80bfdc6}[Scopes.SINGLETON]
2024-01-11T16:25:53,755  INFO Injector:87   --> source: org.matsim.core.mobsim.qsim.QSimModule.lambda$install$0(QSimModule.java:85)
2024-01-11T16:25:53,755  INFO Injector:89   --> scope: eager singleton
2024-01-11T16:25:53,755  INFO Injector:94   ==full==> InstanceBinding{key=Key[type=org.matsim.core.mobsim.qsim.AbstractQSimModule, annotation=@com.google.inject.internal.Element(setName=,uniqueId=109, type=MULTIBINDER, keyType=)], source=org.matsim.core.mobsim.qsim.QSimModule.lambda$install$0(QSimModule.java:85), instance=org.matsim.core.mobsim.qsim.changeeventsengine.NetworkChangeEventsModule@80bfdc6}
2024-01-11T16:25:53,755  INFO Injector:96 
2024-01-11T16:25:53,756  INFO Injector:85 org.matsim.core.mobsim.qsim.AbstractQSimModule @com.google.inject.internal.Element(setName=,uniqueId=110, type=MULTIBINDER, keyType=)
2024-01-11T16:25:53,756  INFO Injector:86   --> provider: ConstantFactory{value=org.matsim.core.mobsim.qsim.pt.TransitEngineModule@6edcad64}[Scopes.SINGLETON]
2024-01-11T16:25:53,756  INFO Injector:87   --> source: org.matsim.core.mobsim.qsim.QSimModule.lambda$install$0(QSimModule.java:85)
2024-01-11T16:25:53,756  INFO Injector:89   --> scope: eager singleton
2024-01-11T16:25:53,756  INFO Injector:94   ==full==> InstanceBinding{key=Key[type=org.matsim.core.mobsim.qsim.AbstractQSimModule, annotation=@com.google.inject.internal.Element(setName=,uniqueId=110, type=MULTIBINDER, keyType=)], source=org.matsim.core.mobsim.qsim.QSimModule.lambda$install$0(QSimModule.java:85), instance=org.matsim.core.mobsim.qsim.pt.TransitEngineModule@6edcad64}
2024-01-11T16:25:53,756  INFO Injector:96 
2024-01-11T16:25:53,756  INFO Injector:85 org.matsim.core.mobsim.framework.Mobsim 
2024-01-11T16:25:53,756  INFO Injector:86   --> provider: Key[type=org.matsim.core.mobsim.qsim.QSimProvider, annotation=[none]]
2024-01-11T16:25:53,756  INFO Injector:87   --> source: org.matsim.core.mobsim.qsim.QSimModule.install(QSimModule.java:100)
2024-01-11T16:25:53,756  INFO Injector:89   --> scope: Scopes.NO_SCOPE
2024-01-11T16:25:53,756  INFO Injector:94   ==full==> ProviderKeyBinding{key=Key[type=org.matsim.core.mobsim.framework.Mobsim, annotation=[none]], source=org.matsim.core.mobsim.qsim.QSimModule.install(QSimModule.java:100), scope=Scopes.NO_SCOPE, provider=Key[type=org.matsim.core.mobsim.qsim.QSimProvider, annotation=[none]]}
2024-01-11T16:25:53,756  INFO Injector:96 
2024-01-11T16:25:53,756  INFO Injector:85 org.matsim.core.controler.listener.ControlerListener @com.google.inject.internal.Element(setName=,uniqueId=111, type=MULTIBINDER, keyType=)
2024-01-11T16:25:53,756  INFO Injector:86   --> provider: FactoryProxy{key=Key[type=org.matsim.core.controler.listener.ControlerListener, annotation=@com.google.inject.internal.Element(setName=,uniqueId=111, type=MULTIBINDER, keyType=)], provider=com.google.inject.internal.ConstructorBindingImpl$Factory@29149030[Scopes.SINGLETON]}
2024-01-11T16:25:53,756  INFO Injector:87   --> source: org.matsim.core.events.MobsimScopeEventHandlingModule.install(MobsimScopeEventHandlingModule.java:39)
2024-01-11T16:25:53,756  INFO Injector:89   --> scope: Scopes.NO_SCOPE
2024-01-11T16:25:53,757  INFO Injector:92   --> target: Key[type=org.matsim.core.events.MobsimScopeEventHandling, annotation=[none]]
2024-01-11T16:25:53,757  INFO Injector:94   ==full==> LinkedKeyBinding{key=Key[type=org.matsim.core.controler.listener.ControlerListener, annotation=@com.google.inject.internal.Element(setName=,uniqueId=111, type=MULTIBINDER, keyType=)], source=org.matsim.core.events.MobsimScopeEventHandlingModule.install(MobsimScopeEventHandlingModule.java:39), scope=Scopes.NO_SCOPE, target=Key[type=org.matsim.core.events.MobsimScopeEventHandling, annotation=[none]]}
2024-01-11T16:25:53,757  INFO Injector:96 
2024-01-11T16:25:53,757  INFO Injector:85 org.matsim.core.mobsim.qsim.AbstractQSimModule @com.google.inject.internal.Element(setName=,uniqueId=112, type=MULTIBINDER, keyType=)
2024-01-11T16:25:53,757  INFO Injector:86   --> provider: ConstantFactory{value=org.matsim.core.events.MobsimScopeEventHandlingModule$1@4c6007fb}[Scopes.SINGLETON]
2024-01-11T16:25:53,757  INFO Injector:87   --> source: org.matsim.core.events.MobsimScopeEventHandlingModule.install(MobsimScopeEventHandlingModule.java:41)
2024-01-11T16:25:53,757  INFO Injector:89   --> scope: eager singleton
2024-01-11T16:25:53,757  INFO Injector:94   ==full==> InstanceBinding{key=Key[type=org.matsim.core.mobsim.qsim.AbstractQSimModule, annotation=@com.google.inject.internal.Element(setName=,uniqueId=112, type=MULTIBINDER, keyType=)], source=org.matsim.core.events.MobsimScopeEventHandlingModule.install(MobsimScopeEventHandlingModule.java:41), instance=org.matsim.core.events.MobsimScopeEventHandlingModule$1@4c6007fb}
2024-01-11T16:25:53,757  INFO Injector:96 
2024-01-11T16:25:53,757  INFO Injector:85 org.matsim.core.trafficmonitoring.TravelTimeCalculator @com.google.inject.name.Named("car")
2024-01-11T16:25:53,757  INFO Injector:86   --> provider: org.matsim.core.trafficmonitoring.TravelTimeCalculatorModule$SingleModeTravelTimeCalculatorProvider@6daf7d37[Scopes.SINGLETON]
2024-01-11T16:25:53,757  INFO Injector:87   --> source: org.matsim.core.trafficmonitoring.TravelTimeCalculatorModule.install(TravelTimeCalculatorModule.java:65)
2024-01-11T16:25:53,757  INFO Injector:89   --> scope: Scopes.SINGLETON
2024-01-11T16:25:53,757  INFO Injector:94   ==full==> ProviderInstanceBinding{key=Key[type=org.matsim.core.trafficmonitoring.TravelTimeCalculator, annotation=@com.google.inject.name.Named("car")], source=org.matsim.core.trafficmonitoring.TravelTimeCalculatorModule.install(TravelTimeCalculatorModule.java:65), scope=Scopes.SINGLETON, provider=org.matsim.core.trafficmonitoring.TravelTimeCalculatorModule$SingleModeTravelTimeCalculatorProvider@6daf7d37}
2024-01-11T16:25:53,757  INFO Injector:96 
2024-01-11T16:25:53,757  INFO Injector:85 org.matsim.core.router.util.TravelTime @com.google.inject.name.Named("car")
2024-01-11T16:25:53,758  INFO Injector:86   --> provider: org.matsim.core.trafficmonitoring.TravelTimeCalculatorModule$1@23a5818e[Scopes.SINGLETON]
2024-01-11T16:25:53,758  INFO Injector:87   --> source: org.matsim.core.trafficmonitoring.TravelTimeCalculatorModule.install(TravelTimeCalculatorModule.java:68)
2024-01-11T16:25:53,758  INFO Injector:89   --> scope: Scopes.SINGLETON
2024-01-11T16:25:53,758  INFO Injector:94   ==full==> ProviderInstanceBinding{key=Key[type=org.matsim.core.router.util.TravelTime, annotation=@com.google.inject.name.Named("car")], source=org.matsim.core.trafficmonitoring.TravelTimeCalculatorModule.install(TravelTimeCalculatorModule.java:68), scope=Scopes.SINGLETON, provider=org.matsim.core.trafficmonitoring.TravelTimeCalculatorModule$1@23a5818e}
2024-01-11T16:25:53,758  INFO Injector:96 
2024-01-11T16:25:53,758  INFO Injector:85 org.matsim.core.router.costcalculators.TravelDisutilityFactory @com.google.inject.name.Named("car")
2024-01-11T16:25:53,758  INFO Injector:86   --> provider: ConstantFactory{value=org.matsim.core.router.costcalculators.RandomizingTimeDistanceTravelDisutilityFactory@38b8b6c0}[Scopes.SINGLETON]
[...]
2024-01-11T16:28:10,373  INFO AbstractQNetsimEngine:426 Assigned 58095 nodes and 92335 links to QSimEngineRunner #2
2024-01-11T16:28:10,373  INFO AbstractQNetsimEngine:426 Assigned 58095 nodes and 92409 links to QSimEngineRunner #3
2024-01-11T16:28:10,373  INFO AbstractQNetsimEngine:426 Assigned 58095 nodes and 92473 links to QSimEngineRunner #4
2024-01-11T16:28:10,373  INFO AbstractQNetsimEngine:426 Assigned 58094 nodes and 92523 links to QSimEngineRunner #5
2024-01-11T16:28:10,383  INFO AbstractQNetsimEngine:364 SIMULATION (QNetsimEngine) AT 00:00:00 : #links=0 #nodes=0
2024-01-11T16:28:10,383  INFO QSim:566 SIMULATION (NEW QSim) AT 00:00:00 : #Veh=9949 lost=0 simT=0.0s realT=1s; (s/r): 0.0
2024-01-11T16:28:10,619  INFO AbstractQNetsimEngine:364 SIMULATION (QNetsimEngine) AT 01:00:00 : #links=24 #nodes=3
2024-01-11T16:28:10,619  INFO QSim:566 SIMULATION (NEW QSim) AT 01:00:00 : #Veh=9949 lost=0 simT=3600.0s realT=1s; (s/r): 3600.0
2024-01-11T16:28:11,022  INFO AbstractQNetsimEngine:364 SIMULATION (QNetsimEngine) AT 02:00:00 : #links=92 #nodes=15
2024-01-11T16:28:11,023  INFO QSim:566 SIMULATION (NEW QSim) AT 02:00:00 : #Veh=9947 lost=0 simT=7200.0s realT=2s; (s/r): 3600.0
2024-01-11T16:28:11,650  INFO AbstractQNetsimEngine:364 SIMULATION (QNetsimEngine) AT 03:00:00 : #links=180 #nodes=30
2024-01-11T16:28:11,650  INFO QSim:566 SIMULATION (NEW QSim) AT 03:00:00 : #Veh=9943 lost=0 simT=10800.0s realT=2s; (s/r): 5400.0
2024-01-11T16:28:12,693  INFO AbstractQNetsimEngine:364 SIMULATION (QNetsimEngine) AT 04:00:00 : #links=269 #nodes=30
2024-01-11T16:28:12,693  INFO QSim:566 SIMULATION (NEW QSim) AT 04:00:00 : #Veh=9938 lost=0 simT=14400.0s realT=3s; (s/r): 4800.0
2024-01-11T16:28:14,308  INFO AbstractQNetsimEngine:364 SIMULATION (QNetsimEngine) AT 05:00:00 : #links=342 #nodes=51
2024-01-11T16:28:14,308  INFO QSim:566 SIMULATION (NEW QSim) AT 05:00:00 : #Veh=9929 lost=0 simT=18000.0s realT=5s; (s/r): 3600.0
2024-01-11T16:28:15,936  INFO AbstractQNetsimEngine:364 SIMULATION (QNetsimEngine) AT 06:00:00 : #links=394 #nodes=62
2024-01-11T16:28:15,936  INFO QSim:566 SIMULATION (NEW QSim) AT 06:00:00 : #Veh=9916 lost=0 simT=21600.0s realT=7s; (s/r): 3085.714285714286
2024-01-11T16:28:18,414  INFO AbstractQNetsimEngine:364 SIMULATION (QNetsimEngine) AT 07:00:00 : #links=415 #nodes=77
2024-01-11T16:28:18,415  INFO QSim:566 SIMULATION (NEW QSim) AT 07:00:00 : #Veh=9883 lost=0 simT=25200.0s realT=9s; (s/r): 2800.0
2024-01-11T16:28:21,341  INFO AbstractQNetsimEngine:364 SIMULATION (QNetsimEngine) AT 08:00:00 : #links=451 #nodes=82
2024-01-11T16:28:21,341  INFO QSim:566 SIMULATION (NEW QSim) AT 08:00:00 : #Veh=9838 lost=0 simT=28800.0s realT=12s; (s/r): 2400.0
2024-01-11T16:28:24,979  INFO AbstractQNetsimEngine:364 SIMULATION (QNetsimEngine) AT 09:00:00 : #links=496 #nodes=63
2024-01-11T16:28:24,980  INFO QSim:566 SIMULATION (NEW QSim) AT 09:00:00 : #Veh=9779 lost=0 simT=32400.0s realT=16s; (s/r): 2025.0
2024-01-11T16:28:28,873  INFO AbstractQNetsimEngine:364 SIMULATION (QNetsimEngine) AT 10:00:00 : #links=506 #nodes=84
2024-01-11T16:28:28,873  INFO QSim:566 SIMULATION (NEW QSim) AT 10:00:00 : #Veh=9715 lost=0 simT=36000.0s realT=20s; (s/r): 1800.0
2024-01-11T16:28:32,968  INFO AbstractQNetsimEngine:364 SIMULATION (QNetsimEngine) AT 11:00:00 : #links=555 #nodes=69
2024-01-11T16:28:32,968  INFO QSim:566 SIMULATION (NEW QSim) AT 11:00:00 : #Veh=9646 lost=0 simT=39600.0s realT=24s; (s/r): 1650.0
2024-01-11T16:28:37,489  INFO AbstractQNetsimEngine:364 SIMULATION (QNetsimEngine) AT 12:00:00 : #links=531 #nodes=82
2024-01-11T16:28:37,489  INFO QSim:566 SIMULATION (NEW QSim) AT 12:00:00 : #Veh=9563 lost=0 simT=43200.0s realT=28s; (s/r): 1542.857142857143
2024-01-11T16:28:41,489  INFO AbstractController$9:237 ### ITERATION 2 fires after mobsim event
2024-01-11T16:28:41,489  INFO Gbl:196 Thread performance: Thread=class org.matsim.core.events.SimStepParallelEventsManagerImpl$ProcessEventsRunnable0  cpu-time=17.296875sec
2024-01-11T16:28:41,489  INFO ControlerListenerManagerImpl:269 calling notifyAfterMobsim on org.matsim.analysis.LegTimesControlerListener with priority 0.0
2024-01-11T16:28:41,490  INFO LegTimesControlerListener:51 [2] average trip (probably: leg) duration is: 13887 seconds = 03:51:27
2024-01-11T16:28:41,490  INFO ControlerListenerManagerImpl:269 calling notifyAfterMobsim on org.matsim.core.events.MobsimScopeEventHandling with priority 0.0
2024-01-11T16:28:41,490  INFO EventsManagerImpl:159 removing Event-Handler: org.matsim.contrib.ev.discharging.DriveDischargingHandler
2024-01-11T16:28:41,490  INFO EventsManagerImpl:159 removing Event-Handler: org.matsim.contrib.ev.discharging.DriveDischargingHandler
2024-01-11T16:28:41,490  INFO EventsManagerImpl:159 removing Event-Handler: org.matsim.contrib.ev.discharging.IdleDischargingHandler
2024-01-11T16:28:41,490  INFO EventsManagerImpl:159 removing Event-Handler: org.matsim.contrib.ev.discharging.IdleDischargingHandler
2024-01-11T16:28:41,490  INFO EventsManagerImpl:159 removing Event-Handler: org.matsim.contrib.ev.stats.EnergyConsumptionCollector
2024-01-11T16:28:41,490  INFO EventsManagerImpl:159 removing Event-Handler: org.matsim.contrib.ev.stats.EnergyConsumptionCollector
2024-01-11T16:28:41,490  INFO EventsManagerImpl:159 removing Event-Handler: org.matsim.contrib.ev.eTruckTraffic.stats.ChargerQueuingCollector
2024-01-11T16:28:41,490  INFO EventsManagerImpl:159 removing Event-Handler: org.matsim.contrib.ev.eTruckTraffic.stats.ChargerQueuingCollector
2024-01-11T16:28:41,490  INFO EventsManagerImpl:159 removing Event-Handler: org.matsim.contrib.ev.charging.VehicleChargingHandler
2024-01-11T16:28:41,490  INFO EventsManagerImpl:159 removing Event-Handler: org.matsim.contrib.ev.charging.VehicleChargingHandler
2024-01-11T16:28:41,491  INFO ControlerListenerManagerImpl:269 calling notifyAfterMobsim on org.matsim.core.scoring.EventsToActivities$1 with priority 0.0
2024-01-11T16:28:41,492  INFO ControlerListenerManagerImpl:272 [it.2] all ControlerAfterMobsimListeners called.
2024-01-11T16:28:41,492  INFO AbstractController$4:162 ### ITERATION 2 fires scoring event
2024-01-11T16:28:41,492  INFO ControlerListenerManagerImpl:197 calling notifyScoring on org.matsim.core.scoring.PlansScoringImpl with priority 0.0
2024-01-11T16:28:41,497  INFO NewScoreAssignerImpl:58 it: 2 msaStart: null
2024-01-11T16:28:41,506  INFO ControlerListenerManagerImpl:209 [it.2] all ControlerScoringListeners called.
2024-01-11T16:28:41,506  INFO AbstractController$5:170 ### ITERATION 2 fires iteration end event
2024-01-11T16:28:41,506  INFO ControlerListenerManagerImpl:172 calling notifyIterationEnds on org.matsim.core.controler.corelisteners.EventsHandlingImpl with priority 0.0
2024-01-11T16:28:41,507  INFO EventsManagerImpl:159 removing Event-Handler: org.matsim.core.events.algorithms.EventWriterXML
2024-01-11T16:28:41,507  INFO EventsManagerImpl:159 removing Event-Handler: org.matsim.core.events.algorithms.EventWriterXML
2024-01-11T16:28:41,507  INFO ControlerListenerManagerImpl:172 calling notifyIterationEnds on org.matsim.core.scoring.PlansScoringImpl with priority 0.0
2024-01-11T16:28:41,511  INFO ControlerListenerManagerImpl:180 calling notifyIterationEnds on org.matsim.counts.CountsControlerListener with priority 0.0
2024-01-11T16:28:41,511  INFO ControlerListenerManagerImpl:180 calling notifyIterationEnds on org.matsim.analysis.ModeStatsControlerListener with priority 0.0
2024-01-11T16:28:41,520  INFO ModeStatsControlerListener:133 Mode shares over all 9949.0 trips found. MainModeIdentifier: class org.matsim.core.router.DefaultAnalysisMainModeIdentifier
2024-01-11T16:28:41,520  INFO ModeStatsControlerListener:140 -- mode share of mode car = 1.0
2024-01-11T16:28:41,587  INFO ControlerListenerManagerImpl:180 calling notifyIterationEnds on org.matsim.analysis.ScoreStatsControlerListener with priority 0.0
2024-01-11T16:28:41,589  INFO ScoreStatsControlerListener:154 -- avg. score of the executed plan of each agent: -411.51019655655926
2024-01-11T16:28:41,589  INFO ScoreStatsControlerListener:155 -- avg. score of the worst plan of each agent: -411.6044381006741
2024-01-11T16:28:41,589  INFO ScoreStatsControlerListener:156 -- avg. of the avg. plan score per agent: -411.52710573345564
2024-01-11T16:28:41,589  INFO ScoreStatsControlerListener:157 -- avg. score of the best plan of each agent: -411.46440053112207
2024-01-11T16:28:41,616  INFO ControlerListenerManagerImpl:180 calling notifyIterationEnds on org.matsim.analysis.IterationTravelStatsControlerListener with priority 0.0
2024-01-11T16:28:41,618  INFO TravelDistanceStats:115 -- average leg distance per plan (executed plans only): 319139.19532752427 meters
2024-01-11T16:28:41,618  INFO TravelDistanceStats:116 average leg distance per Person (executed plans only): 24410.98880734204 meters (statistic on all 761 legs which have a finite distance)
2024-01-11T16:28:41,618  INFO TravelDistanceStats:117 -- average trip distance per plan (executed plans only): 404574.91869897454 meters
2024-01-11T16:28:41,618  INFO TravelDistanceStats:118 average trip distance per Person (executed plans only): 15696.644750005446 meters (statistic on all 386 trips which have a finite distance)
2024-01-11T16:28:41,618  INFO TravelDistanceStats:119 (TravelDistanceStats takes an average over all legs where the simulation reports travelled (network) distances
2024-01-11T16:28:41,618  INFO TravelDistanceStats:120 (and teleported legs whose route contains a distance.)
2024-01-11T16:28:41,785  INFO ActivityWriter:39 Writing all Activities to activitiescsv
2024-01-11T16:28:41,799  INFO ActivityWriter:59 ...done
2024-01-11T16:28:41,799  INFO ControlerListenerManagerImpl:180 calling notifyIterationEnds on org.matsim.analysis.LegHistogramListener with priority 0.0
2024-01-11T16:28:41,800  INFO LegHistogramListener:73 number of legs:	1348	100%
2024-01-11T16:28:41,800  INFO LegHistogramListener:80 number of car legs:	1348	100.0%
2024-01-11T16:28:41,973  INFO ControlerListenerManagerImpl:180 calling notifyIterationEnds on org.matsim.analysis.LinkStatsControlerListener with priority 0.0
2024-01-11T16:28:41,973  INFO ControlerListenerManagerImpl:180 calling notifyIterationEnds on org.matsim.contrib.common.timeprofile.ProfileWriter with priority 0.0
2024-01-11T16:28:44,395  INFO ControlerListenerManagerImpl:180 calling notifyIterationEnds on org.matsim.contrib.ev.stats.ChargingProceduresCSVWriter with priority 0.0
2024-01-11T16:28:44,397  INFO ControlerListenerManagerImpl:184 [it.2] all ControlerIterationEndsListeners called.
2024-01-11T16:28:44,447  INFO AbstractController:184 ### ITERATION 2 ENDS
2024-01-11T16:28:44,447  INFO AbstractController:185 ###################################################
2024-01-11T16:28:44,447  INFO MatsimRuntimeModifications:80 S H U T D O W N   ---   start shutdown.
2024-01-11T16:28:44,447  INFO ControlerListenerManagerImpl:128 calling notifyShutdown on org.matsim.core.controler.corelisteners.EventsHandlingImpl with priority 0.0
2024-01-11T16:28:44,448  INFO ControlerListenerManagerImpl:128 calling notifyShutdown on org.matsim.core.controler.corelisteners.DumpDataAtEndImpl with priority 0.0
2024-01-11T16:28:44,452  INFO Counter:70 [PopulationWriter] dumped person # 1
2024-01-11T16:28:44,452  INFO Counter:70 [PopulationWriter] dumped person # 2
2024-01-11T16:28:44,452  INFO Counter:70 [PopulationWriter] dumped person # 4
2024-01-11T16:28:44,452  INFO Counter:70 [PopulationWriter] dumped person # 8
2024-01-11T16:28:44,452  INFO Counter:70 [PopulationWriter] dumped person # 16
2024-01-11T16:28:44,452  INFO Counter:70 [PopulationWriter] dumped person # 32
2024-01-11T16:28:44,452  INFO Counter:70 [PopulationWriter] dumped person # 64
2024-01-11T16:28:44,452  INFO Counter:70 [PopulationWriter] dumped person # 128
2024-01-11T16:28:44,452  INFO Counter:70 [PopulationWriter] dumped person # 256
2024-01-11T16:28:44,452  INFO Counter:70 [PopulationWriter] dumped person # 512
2024-01-11T16:28:44,453  INFO Counter:70 [ParallelPopulationWriterV6] dumped person # 1
2024-01-11T16:28:44,454  INFO Counter:70 [ParallelPopulationWriterV6] dumped person # 2
2024-01-11T16:28:44,457  INFO Counter:70 [ParallelPopulationWriterV6] dumped person # 4
2024-01-11T16:28:44,462  INFO Counter:70 [ParallelPopulationWriterV6] dumped person # 8
2024-01-11T16:28:44,482  INFO Counter:70 [ParallelPopulationWriterV6] dumped person # 16
2024-01-11T16:28:44,490  INFO Counter:70 [PopulationWriter] dumped person # 1024
2024-01-11T16:28:44,511  INFO Counter:70 [ParallelPopulationWriterV6] dumped person # 32
2024-01-11T16:28:44,553  INFO Counter:70 [ParallelPopulationWriterV6] dumped person # 64
2024-01-11T16:28:44,644  INFO Counter:70 [ParallelPopulationWriterV6] dumped person # 128
2024-01-11T16:28:44,787  INFO Counter:70 [ParallelPopulationWriterV6] dumped person # 256
2024-01-11T16:28:45,160  INFO Counter:70 [ParallelPopulationWriterV6] dumped person # 512
2024-01-11T16:28:45,880  INFO Counter:70 [ParallelPopulationWriterV6] dumped person # 1024
2024-01-11T16:28:45,914  INFO Counter:70 [PopulationWriter] dumped person # 2048
2024-01-11T16:28:47,211  INFO Counter:70 [ParallelPopulationWriterV6] dumped person # 2048
2024-01-11T16:28:48,546  INFO Counter:70 [PopulationWriter] dumped person # 4096
2024-01-11T16:28:49,932  INFO Counter:70 [ParallelPopulationWriterV6] dumped person # 4096
2024-01-11T16:28:53,846  INFO MemoryObserver:42 used RAM: 3756 MB  free: 273 MB  total: 4030 MB
2024-01-11T16:28:54,117  INFO Counter:70 [PopulationWriter] dumped person # 8192
2024-01-11T16:28:55,697  INFO Counter:70 [ParallelPopulationWriterV6] dumped person # 8192
2024-01-11T16:28:58,588  INFO Counter:75 [ParallelPopulationWriterV6] dumped person # 9949
2024-01-11T16:28:58,588  INFO PopulationWriter:150 Population written to: ./output/ETruckTraffic/1.0pctETrucks/eTrucks_Chargers_75quantil_720kW.xml/output_plans.xml.gz
2024-01-11T16:28:58,591  INFO Counter:75 [PopulationWriter] dumped person # 9949
2024-01-11T16:28:58,615  INFO NetworkWriter:70 Writing network to file: ./output/ETruckTraffic/1.0pctETrucks/eTrucks_Chargers_75quantil_720kW.xml/output_network.xml.gz...
2024-01-11T16:29:03,739  INFO NetworkWriter:73 done.
2024-01-11T16:29:03,744  INFO Config:550 setting context to [file:/C:/Users/Tobias%20Tietz/IdeaProjects/matsim-libs-HoLa/]
2024-01-11T16:29:03,749  INFO Config:550 setting context to [file:/C:/Users/Tobias%20Tietz/IdeaProjects/matsim-libs-HoLa/]
2024-01-11T16:29:03,751  INFO Config:550 setting context to [file:/C:/Users/Tobias%20Tietz/IdeaProjects/matsim-libs-HoLa/]
2024-01-11T16:29:03,753  INFO Config:550 setting context to [file:/C:/Users/Tobias%20Tietz/IdeaProjects/matsim-libs-HoLa/]
2024-01-11T16:29:03,755  INFO Config:550 setting context to [file:/C:/Users/Tobias%20Tietz/IdeaProjects/matsim-libs-HoLa/]
2024-01-11T16:29:03,756  INFO Config:550 setting context to [file:/C:/Users/Tobias%20Tietz/IdeaProjects/matsim-libs-HoLa/]
2024-01-11T16:29:03,757  INFO Config:550 setting context to [file:/C:/Users/Tobias%20Tietz/IdeaProjects/matsim-libs-HoLa/]
2024-01-11T16:29:03,759  INFO Config:550 setting context to [file:/C:/Users/Tobias%20Tietz/IdeaProjects/matsim-libs-HoLa/]
2024-01-11T16:29:03,760  INFO Config:550 setting context to [file:/C:/Users/Tobias%20Tietz/IdeaProjects/matsim-libs-HoLa/]
2024-01-11T16:29:03,761  INFO Config:550 setting context to [file:/C:/Users/Tobias%20Tietz/IdeaProjects/matsim-libs-HoLa/]
2024-01-11T16:29:03,762  INFO Config:550 setting context to [file:/C:/Users/Tobias%20Tietz/IdeaProjects/matsim-libs-HoLa/]
2024-01-11T16:29:03,766  INFO Config:550 setting context to [file:/C:/Users/Tobias%20Tietz/IdeaProjects/matsim-libs-HoLa/]
2024-01-11T16:29:03,768  INFO Config:550 setting context to [file:/C:/Users/Tobias%20Tietz/IdeaProjects/matsim-libs-HoLa/]
2024-01-11T16:29:03,769  INFO Config:550 setting context to [file:/C:/Users/Tobias%20Tietz/IdeaProjects/matsim-libs-HoLa/]
2024-01-11T16:29:03,770  INFO Config:550 setting context to [file:/C:/Users/Tobias%20Tietz/IdeaProjects/matsim-libs-HoLa/]
2024-01-11T16:29:03,773  INFO Config:550 setting context to [file:/C:/Users/Tobias%20Tietz/IdeaProjects/matsim-libs-HoLa/]
2024-01-11T16:29:03,774  INFO Config:550 setting context to [file:/C:/Users/Tobias%20Tietz/IdeaProjects/matsim-libs-HoLa/]
2024-01-11T16:29:03,775  INFO Config:550 setting context to [file:/C:/Users/Tobias%20Tietz/IdeaProjects/matsim-libs-HoLa/]
2024-01-11T16:29:03,776  INFO Config:550 setting context to [file:/C:/Users/Tobias%20Tietz/IdeaProjects/matsim-libs-HoLa/]
2024-01-11T16:29:03,777  INFO Config:550 setting context to [file:/C:/Users/Tobias%20Tietz/IdeaProjects/matsim-libs-HoLa/]
2024-01-11T16:29:03,778  INFO Config:550 setting context to [file:/C:/Users/Tobias%20Tietz/IdeaProjects/matsim-libs-HoLa/]
2024-01-11T16:29:03,781  INFO Config:550 setting context to [file:/C:/Users/Tobias%20Tietz/IdeaProjects/matsim-libs-HoLa/]
2024-01-11T16:29:03,782  INFO Config:550 setting context to [file:/C:/Users/Tobias%20Tietz/IdeaProjects/matsim-libs-HoLa/]
2024-01-11T16:29:03,783  INFO Config:550 setting context to [file:/C:/Users/Tobias%20Tietz/IdeaProjects/matsim-libs-HoLa/]
2024-01-11T16:29:03,784  INFO Config:550 setting context to [file:/C:/Users/Tobias%20Tietz/IdeaProjects/matsim-libs-HoLa/]
2024-01-11T16:29:03,785  INFO Config:550 setting context to [file:/C:/Users/Tobias%20Tietz/IdeaProjects/matsim-libs-HoLa/]
2024-01-11T16:29:03,786  INFO Config:550 setting context to [file:/C:/Users/Tobias%20Tietz/IdeaProjects/matsim-libs-HoLa/]
2024-01-11T16:29:03,786  INFO Config:550 setting context to [file:/C:/Users/Tobias%20Tietz/IdeaProjects/matsim-libs-HoLa/]
2024-01-11T16:29:03,821  INFO MatsimVehicleWriter:49 about to write vehicles to: ./output/ETruckTraffic/1.0pctETrucks/eTrucks_Chargers_75quantil_720kW.xml/output_vehicles.xml.gz
2024-01-11T16:29:03,821  INFO VehicleWriterV2:64 about to write vehicles to: ./output/ETruckTraffic/1.0pctETrucks/eTrucks_Chargers_75quantil_720kW.xml/output_vehicles.xml.gz
2024-01-11T16:29:03,860  INFO MatsimVehicleWriter:49 about to write vehicles to: ./output/ETruckTraffic/1.0pctETrucks/eTrucks_Chargers_75quantil_720kW.xml/output_allVehicles.xml.gz
2024-01-11T16:29:03,860  INFO VehicleWriterV2:64 about to write vehicles to: ./output/ETruckTraffic/1.0pctETrucks/eTrucks_Chargers_75quantil_720kW.xml/output_allVehicles.xml.gz
2024-01-11T16:29:03,900  INFO HouseholdsWriterV10:66 about to write  households to: ./output/ETruckTraffic/1.0pctETrucks/eTrucks_Chargers_75quantil_720kW.xml/output_households.xml.gz
2024-01-11T16:29:03,901  INFO Counter:75 [HouseholdsWriter] wrote household # 0
2024-01-11T16:29:03,934  INFO CountsWriterV2:45 Write Counts to ./output/ETruckTraffic/1.0pctETrucks/eTrucks_Chargers_75quantil_720kW.xml/output_counts.xml.gz
2024-01-11T16:29:03,999  INFO ControlerListenerManagerImpl:135 calling notifyShutdown on org.matsim.analysis.ScoreStatsControlerListener with priority 0.0
2024-01-11T16:29:03,999  INFO ControlerListenerManagerImpl:135 calling notifyShutdown on org.matsim.analysis.IterationTravelStatsControlerListener with priority 0.0
2024-01-11T16:29:03,999  INFO PersonWriter:36 Writing all Persons to personscsv
2024-01-11T16:29:04,046  INFO PersonWriter:54 ...done
2024-01-11T16:29:04,046  INFO ControlerListenerManagerImpl:135 calling notifyShutdown on org.matsim.analysis.LinkStatsControlerListener with priority 0.0
2024-01-11T16:29:10,597  INFO ControlerListenerManagerImpl:138 all ControlerShutdownListeners called.
2024-01-11T16:29:10,597  INFO MatsimRuntimeModifications:103 S H U T D O W N   ---   shutdown completed.
2024-01-11T16:29:10,597  INFO OutputDirectoryLogging:172 closing the logfile, i.e. messages sent to the logger after this message are not written to the logfile.
2024-01-11T16:29:10,598  INFO OutputDirectoryLogging:172 closing the logfile, i.e. messages sent to the logger after this message are not written to the logfile.
